65158
  -OEChem-08022503263D

 50 53  0     1  0  0  0  0  0999 V2000
    1.0445    2.1624    1.1761 O   0  0  0  0  0  0  0  0  0  0  0  0
    2.0686    0.7919    2.6773 O   0  0  0  0  0  0  0  0  0  0  0  0
   -0.8923   -2.4284    0.7831 O   0  0  0  0  0  0  0  0  0  0  0  0
   -3.4708   -1.9023    0.1952 O   0  0  0  0  0  0  0  0  0  0  0  0
    1.8633    0.2248   -0.8167 C   0  0  2  0  0  0  0  0  0  0  0  0
    1.2334   -0.1885    0.5660 C   0  0  2  0  0  0  0  0  0  0  0  0
    3.3486   -0.1947   -1.0073 C   0  0  0  0  0  0  0  0  0  0  0  0
    1.5053    1.7077   -1.1210 C   0  0  0  0  0  0  0  0  0  0  0  0
    1.7953   -1.5354    1.0656 C   0  0  0  0  0  0  0  0  0  0  0  0
    3.4696   -1.7405   -0.8345 C   0  0  0  0  0  0  0  0  0  0  0  0
    0.4206    2.1659   -0.1329 C   0  0  1  0  0  0  0  0  0  0  0  0
   -0.2794   -0.1304    0.3148 C   0  0  0  0  0  0  0  0  0  0  0  0
    2.3103   -2.4020   -0.0770 C   0  0  0  0  0  0  0  0  0  0  0  0
   -0.7030    1.1608   -0.0776 C   0  0  0  0  0  0  0  0  0  0  0  0
    1.5196    0.9407    1.5933 C   0  0  0  0  0  0  0  0  0  0  0  0
    4.3039    0.5033   -0.0173 C   0  0  0  0  0  0  0  0  0  0  0  0
    3.8221    0.1726   -2.4313 C   0  0  0  0  0  0  0  0  0  0  0  0
   -1.2063   -1.1630    0.3985 C   0  0  0  0  0  0  0  0  0  0  0  0
   -2.0350    1.4244   -0.3687 C   0  0  0  0  0  0  0  0  0  0  0  0
   -2.9591    0.3849   -0.2738 C   0  0  0  0  0  0  0  0  0  0  0  0
   -2.5474   -0.8989    0.1053 C   0  0  0  0  0  0  0  0  0  0  0  0
   -4.3955    0.6633   -0.5769 C   0  0  0  0  0  0  0  0  0  0  0  0
   -5.3079    0.4287    0.6406 C   0  0  0  0  0  0  0  0  0  0  0  0
   -4.9086   -0.1473   -1.7809 C   0  0  0  0  0  0  0  0  0  0  0  0
    1.3204   -0.3471   -1.5905 H   0  0  0  0  0  0  0  0  0  0  0  0
    1.1474    1.7939   -2.1541 H   0  0  0  0  0  0  0  0  0  0  0  0
    2.3807    2.3563   -1.0184 H   0  0  0  0  0  0  0  0  0  0  0  0
    1.1055   -2.0810    1.7119 H   0  0  0  0  0  0  0  0  0  0  0  0
    2.6578   -1.3605    1.7224 H   0  0  0  0  0  0  0  0  0  0  0  0
    4.4093   -1.9839   -0.3216 H   0  0  0  0  0  0  0  0  0  0  0  0
    3.5392   -2.2332   -1.8132 H   0  0  0  0  0  0  0  0  0  0  0  0
    0.0702    3.1795   -0.3484 H   0  0  0  0  0  0  0  0  0  0  0  0
    2.6465   -3.3695    0.3141 H   0  0  0  0  0  0  0  0  0  0  0  0
    1.4928   -2.6213   -0.7744 H   0  0  0  0  0  0  0  0  0  0  0  0
    4.2213    1.5932   -0.0669 H   0  0  0  0  0  0  0  0  0  0  0  0
    4.1287    0.2003    1.0171 H   0  0  0  0  0  0  0  0  0  0  0  0
    5.3474    0.2517   -0.2432 H   0  0  0  0  0  0  0  0  0  0  0  0
    4.8352   -0.2023   -2.6182 H   0  0  0  0  0  0  0  0  0  0  0  0
    3.1632   -0.2616   -3.1917 H   0  0  0  0  0  0  0  0  0  0  0  0
    3.8414    1.2566   -2.5860 H   0  0  0  0  0  0  0  0  0  0  0  0
   -2.3388    2.4243   -0.6635 H   0  0  0  0  0  0  0  0  0  0  0  0
   -4.5017    1.7231   -0.8465 H   0  0  0  0  0  0  0  0  0  0  0  0
   -1.4804   -3.0582    0.3341 H   0  0  0  0  0  0  0  0  0  0  0  0
   -3.1535   -2.5778    0.8167 H   0  0  0  0  0  0  0  0  0  0  0  0
   -5.4025   -0.6261    0.9128 H   0  0  0  0  0  0  0  0  0  0  0  0
   -6.3183    0.7961    0.4277 H   0  0  0  0  0  0  0  0  0  0  0  0
   -4.9358    0.9709    1.5171 H   0  0  0  0  0  0  0  0  0  0  0  0
   -4.2517   -0.0153   -2.6480 H   0  0  0  0  0  0  0  0  0  0  0  0
   -5.9087    0.1982   -2.0667 H   0  0  0  0  0  0  0  0  0  0  0  0
   -4.9859   -1.2189   -1.5781 H   0  0  0  0  0  0  0  0  0  0  0  0
  1 11  1  0  0  0  0
  1 15  1  0  0  0  0
  2 15  2  0  0  0  0
  3 18  1  0  0  0  0
  3 43  1  0  0  0  0
  4 21  1  0  0  0  0
  4 44  1  0  0  0  0
  5  6  1  0  0  0  0
  5  7  1  0  0  0  0
  5  8  1  0  0  0  0
  5 25  1  0  0  0  0
  6  9  1  0  0  0  0
  6 12  1  0  0  0  0
  6 15  1  0  0  0  0
  7 10  1  0  0  0  0
  7 16  1  0  0  0  0
  7 17  1  0  0  0  0
  8 11  1  0  0  0  0
  8 26  1  0  0  0  0
  8 27  1  0  0  0  0
  9 13  1  0  0  0  0
  9 28  1  0  0  0  0
  9 29  1  0  0  0  0
 10 13  1  0  0  0  0
 10 30  1  0  0  0  0
 10 31  1  0  0  0  0
 11 14  1  0  0  0  0
 11 32  1  0  0  0  0
 12 14  1  0  0  0  0
 12 18  2  0  0  0  0
 13 33  1  0  0  0  0
 13 34  1  0  0  0  0
 14 19  2  0  0  0  0
 16 35  1  0  0  0  0
 16 36  1  0  0  0  0
 16 37  1  0  0  0  0
 17 38  1  0  0  0  0
 17 39  1  0  0  0  0
 17 40  1  0  0  0  0
 18 21  1  0  0  0  0
 19 20  1  0  0  0  0
 19 41  1  0  0  0  0
 20 21  2  0  0  0  0
 20 22  1  0  0  0  0
 22 23  1  0  0  0  0
 22 24  1  0  0  0  0
 22 42  1  0  0  0  0
 23 45  1  0  0  0  0
 23 46  1  0  0  0  0
 23 47  1  0  0  0  0
 24 48  1  0  0  0  0
 24 49  1  0  0  0  0
 24 50  1  0  0  0  0
M  END
> <PUBCHEM_COMPOUND_CID>
65158

> <PUBCHEM_CONFORMER_RMSD>
0.6

> <PUBCHEM_CONFORMER_DIVERSEORDER>
2
1

> <PUBCHEM_MMFF94_PARTIAL_CHARGES>
17
1 -0.43
11 0.42
12 -0.14
14 -0.14
15 0.66
18 0.08
19 -0.15
2 -0.57
20 -0.14
21 0.08
22 0.14
3 -0.53
4 -0.53
41 0.15
43 0.45
44 0.45
6 0.2

> <PUBCHEM_EFFECTIVE_ROTOR_COUNT>
2.2

> <PUBCHEM_PHARMACOPHORE_FEATURES>
8
1 2 acceptor
1 3 donor
1 4 donor
3 22 23 24 hydrophobe
3 7 16 17 hydrophobe
6 12 14 18 19 20 21 rings
6 5 6 7 9 10 13 rings
8 1 5 6 8 11 12 14 15 rings

> <PUBCHEM_HEAVY_ATOM_COUNT>
24

> <PUBCHEM_ATOM_DEF_STEREO_COUNT>
2

> <PUBCHEM_ATOM_UDEF_STEREO_COUNT>
1

> <PUBCHEM_BOND_DEF_STEREO_COUNT>
0

> <PUBCHEM_BOND_UDEF_STEREO_COUNT>
0

> <PUBCHEM_ISOTOPIC_ATOM_COUNT>
0

> <PUBCHEM_COMPONENT_COUNT>
1

> <PUBCHEM_CACTVS_TAUTO_COUNT>
34

> <PUBCHEM_CONFORMER_ID>
0000FE8600000002

> <PUBCHEM_MMFF94_ENERGY>
98.7126

> <PUBCHEM_FEATURE_SELFOVERLAP>
40.631

> <PUBCHEM_SHAPE_FINGERPRINT>
10498660 4 17967811665380007741
10863032 1 18336837402920281214
10948715 1 15430045382700930104
11578080 2 17630608040520821059
11796584 16 16128658522728573807
12236239 1 17095519587193371968
12553582 1 18335697235301061525
12788726 201 17986408693056643665
12892183 10 12607406533908241110
13134695 92 17775283863362544224
13140716 1 18190462864103914841
13224815 77 17894906361015219139
13544653 18 17131846339020642692
13583140 156 15768632360786653187
14790565 3 18192161395348400093
1601671 61 18260266343483060149
16752209 62 18262226712997591613
16945 1 18263662735238922252
17492 54 17895776053037571988
1813 80 14907640973327631300
18186145 218 18342450457346471121
19765921 60 16732995261950426728
19862831 5 17967818244953426431
20645477 70 17560796662654535245
20691752 17 18187632639928128711
20905425 154 17836359346310175279
21069387 34 16200439082548831607
21267235 1 18263094227318491870
22182313 1 18121788484508419122
23419403 2 17841682181301114072
23493267 7 17240489147311832827
23557571 272 17985534787882234243
23559900 14 18410578405464174172
2748010 2 17831306368720199402
2838139 119 16154568630401653812
3004659 81 18187931612660041534
34934 24 18411699911181688094
463206 1 17917429757410025319
474 4 15502955111161550388
484985 159 13750255257942717308
495365 180 17774707740897043259
5895379 119 16518469389030435260
633830 44 18342170090545461925
7364860 26 18341046410466759216
9981440 41 16885569169384387156

> <PUBCHEM_SHAPE_MULTIPOLES>
470.43
8.51
2.22
1.67
8.11
0.57
0.11
0.72
-3.31
-0.66
0.27
-1.21
-0.38
0.24

> <PUBCHEM_SHAPE_SELFOVERLAP>
1034.164

> <PUBCHEM_SHAPE_VOLUME>
251.3

> <PUBCHEM_COORDINATE_TYPE>
2
5
10

$$$$
