636675
  -OEChem-08022503253D

 48 52  0     1  0  0  0  0  0999 V2000
    1.1029   -1.6005   -1.6736 O   0  0  0  0  0  0  0  0  0  0  0  0
    2.0718    0.2406   -2.6155 O   0  0  0  0  0  0  0  0  0  0  0  0
   -3.6790    1.7355    0.2143 O   0  0  0  0  0  0  0  0  0  0  0  0
   -1.0304    2.5854    0.0022 O   0  0  0  0  0  0  0  0  0  0  0  0
    1.8171   -0.4307    0.8325 C   0  0  2  0  0  0  0  0  0  0  0  0
    1.1729    0.4135   -0.3267 C   0  0  2  0  0  0  0  0  0  0  0  0
    3.3537   -0.2243    1.0542 C   0  0  0  0  0  0  0  0  0  0  0  0
    1.3706   -1.9183    0.6943 C   0  0  0  0  0  0  0  0  0  0  0  0
    1.6392    1.8779   -0.2923 C   0  0  0  0  0  0  0  0  0  0  0  0
    3.6574    1.2927    1.0996 C   0  0  0  0  0  0  0  0  0  0  0  0
    0.3970   -2.0472   -0.4840 C   0  0  1  0  0  0  0  0  0  0  0  0
   -0.3524    0.2555   -0.1956 C   0  0  0  0  0  0  0  0  0  0  0  0
    3.1468    2.0429   -0.1263 C   0  0  0  0  0  0  0  0  0  0  0  0
   -0.7588   -1.1036   -0.2767 C   0  0  0  0  0  0  0  0  0  0  0  0
    1.5207   -0.2875   -1.6589 C   0  0  0  0  0  0  0  0  0  0  0  0
    4.2498   -0.8848   -0.0160 C   0  0  0  0  0  0  0  0  0  0  0  0
    3.7560   -0.8304    2.4188 C   0  0  0  0  0  0  0  0  0  0  0  0
   -1.3041    1.2596   -0.0391 C   0  0  0  0  0  0  0  0  0  0  0  0
   -2.0964   -1.4800   -0.1935 C   0  0  0  0  0  0  0  0  0  0  0  0
   -3.0248   -0.4700   -0.0165 C   0  0  0  0  0  0  0  0  0  0  0  0
   -2.6277    0.8639    0.0573 C   0  0  0  0  0  0  0  0  0  0  0  0
   -4.5093   -0.5346    0.0400 C   0  0  2  0  0  0  0  0  0  0  0  0
   -4.7813    0.8739    0.5854 C   0  0  0  0  0  0  0  0  0  0  0  0
   -5.0919   -1.6296    0.9161 C   0  0  0  0  0  0  0  0  0  0  0  0
    1.3410   -0.0662    1.7588 H   0  0  0  0  0  0  0  0  0  0  0  0
    0.8921   -2.2439    1.6265 H   0  0  0  0  0  0  0  0  0  0  0  0
    2.2206   -2.5833    0.5246 H   0  0  0  0  0  0  0  0  0  0  0  0
    1.1988    2.3887    0.5723 H   0  0  0  0  0  0  0  0  0  0  0  0
    1.3187    2.4159   -1.1930 H   0  0  0  0  0  0  0  0  0  0  0  0
    4.7374    1.4618    1.1978 H   0  0  0  0  0  0  0  0  0  0  0  0
    3.1979    1.7333    1.9948 H   0  0  0  0  0  0  0  0  0  0  0  0
    0.0715   -3.0803   -0.6374 H   0  0  0  0  0  0  0  0  0  0  0  0
    3.6710    1.7115   -1.0283 H   0  0  0  0  0  0  0  0  0  0  0  0
    3.3784    3.1091   -0.0142 H   0  0  0  0  0  0  0  0  0  0  0  0
    4.1568   -1.9744   -0.0222 H   0  0  0  0  0  0  0  0  0  0  0  0
    4.0401   -0.5295   -1.0257 H   0  0  0  0  0  0  0  0  0  0  0  0
    5.3068   -0.6658    0.1801 H   0  0  0  0  0  0  0  0  0  0  0  0
    4.8141   -0.6443    2.6369 H   0  0  0  0  0  0  0  0  0  0  0  0
    3.1706   -0.3944    3.2362 H   0  0  0  0  0  0  0  0  0  0  0  0
    3.6014   -1.9144    2.4401 H   0  0  0  0  0  0  0  0  0  0  0  0
   -2.3961   -2.5180   -0.2773 H   0  0  0  0  0  0  0  0  0  0  0  0
   -4.8958   -0.6194   -0.9830 H   0  0  0  0  0  0  0  0  0  0  0  0
   -5.7091    1.2872    0.1753 H   0  0  0  0  0  0  0  0  0  0  0  0
   -4.8606    0.8898    1.6804 H   0  0  0  0  0  0  0  0  0  0  0  0
   -1.8620    3.0780    0.1128 H   0  0  0  0  0  0  0  0  0  0  0  0
   -4.6892   -1.5899    1.9345 H   0  0  0  0  0  0  0  0  0  0  0  0
   -6.1811   -1.5358    0.9771 H   0  0  0  0  0  0  0  0  0  0  0  0
   -4.8609   -2.6202    0.5100 H   0  0  0  0  0  0  0  0  0  0  0  0
  1 11  1  0  0  0  0
  1 15  1  0  0  0  0
  2 15  2  0  0  0  0
  3 21  1  0  0  0  0
  3 23  1  0  0  0  0
  4 18  1  0  0  0  0
  4 45  1  0  0  0  0
  5  6  1  0  0  0  0
  5  7  1  0  0  0  0
  5  8  1  0  0  0  0
  5 25  1  0  0  0  0
  6  9  1  0  0  0  0
  6 12  1  0  0  0  0
  6 15  1  0  0  0  0
  7 10  1  0  0  0  0
  7 16  1  0  0  0  0
  7 17  1  0  0  0  0
  8 11  1  0  0  0  0
  8 26  1  0  0  0  0
  8 27  1  0  0  0  0
  9 13  1  0  0  0  0
  9 28  1  0  0  0  0
  9 29  1  0  0  0  0
 10 13  1  0  0  0  0
 10 30  1  0  0  0  0
 10 31  1  0  0  0  0
 11 14  1  0  0  0  0
 11 32  1  0  0  0  0
 12 14  2  0  0  0  0
 12 18  1  0  0  0  0
 13 33  1  0  0  0  0
 13 34  1  0  0  0  0
 14 19  1  0  0  0  0
 16 35  1  0  0  0  0
 16 36  1  0  0  0  0
 16 37  1  0  0  0  0
 17 38  1  0  0  0  0
 17 39  1  0  0  0  0
 17 40  1  0  0  0  0
 18 21  2  0  0  0  0
 19 20  2  0  0  0  0
 19 41  1  0  0  0  0
 20 21  1  0  0  0  0
 20 22  1  0  0  0  0
 22 23  1  0  0  0  0
 22 24  1  0  0  0  0
 22 42  1  0  0  0  0
 23 43  1  0  0  0  0
 23 44  1  0  0  0  0
 24 46  1  0  0  0  0
 24 47  1  0  0  0  0
 24 48  1  0  0  0  0
M  END
> <PUBCHEM_COMPOUND_CID>
636675

> <PUBCHEM_CONFORMER_RMSD>
0.6

> <PUBCHEM_CONFORMER_DIVERSEORDER>
1

> <PUBCHEM_MMFF94_PARTIAL_CHARGES>
17
1 -0.43
11 0.42
12 -0.14
14 -0.14
15 0.66
18 0.08
19 -0.15
2 -0.57
20 -0.14
21 0.08
22 0.14
23 0.28
3 -0.36
4 -0.53
41 0.15
45 0.45
6 0.2

> <PUBCHEM_EFFECTIVE_ROTOR_COUNT>
1.8

> <PUBCHEM_PHARMACOPHORE_FEATURES>
8
1 2 acceptor
1 3 acceptor
1 4 donor
3 7 16 17 hydrophobe
5 3 20 21 22 23 rings
6 12 14 18 19 20 21 rings
6 5 6 7 9 10 13 rings
8 1 5 6 8 11 12 14 15 rings

> <PUBCHEM_HEAVY_ATOM_COUNT>
24

> <PUBCHEM_ATOM_DEF_STEREO_COUNT>
4

> <PUBCHEM_ATOM_UDEF_STEREO_COUNT>
0

> <PUBCHEM_BOND_DEF_STEREO_COUNT>
0

> <PUBCHEM_BOND_UDEF_STEREO_COUNT>
0

> <PUBCHEM_ISOTOPIC_ATOM_COUNT>
0

> <PUBCHEM_COMPONENT_COUNT>
1

> <PUBCHEM_CACTVS_TAUTO_COUNT>
5

> <PUBCHEM_CONFORMER_ID>
0009B70300000001

> <PUBCHEM_MMFF94_ENERGY>
92.51

> <PUBCHEM_FEATURE_SELFOVERLAP>
40.734

> <PUBCHEM_SHAPE_FINGERPRINT>
10646746 165 18342178830175888717
10863032 1 18340482391350967002
10948715 1 18201154476902545184
11132069 177 18131058346893877571
12236239 1 17894634751319989542
12251169 10 18408597063250023778
12403259 415 17703789228010098400
12633257 1 18262226733897032296
12892183 10 18188194460231220688
13134695 92 14634871946242972462
13140716 1 18338229465849714017
13224815 77 18335993021082123417
13544653 18 15430309183860876666
13583140 156 17749931320038298207
14178342 30 18196937669295102921
14223421 5 18338229345596014625
14787075 74 17753044196138538546
14955137 171 18409446947795719666
15196674 1 18410855481993557425
15788980 27 16515401876828214859
16945 1 18263343833874950682
17349148 13 18261108591160282447
1813 80 17096366129927762474
20261772 1 18271241724465378683
20691752 17 18186810153701500713
20715895 44 17974838485665358781
20775530 9 13121895413461927936
21033648 29 17774421811928425482
21069387 34 16588024602214577505
21267235 1 18408891745304177027
21421861 104 18115589214876443787
21637258 2 15864337009938225722
21756936 100 17912068758505062936
22149856 69 18059314114915136531
22182313 1 18128534860217872567
23557571 272 18060142041878767315
23559900 14 18128826235126141279
2748010 2 18269845229124012775
350125 39 18412265013024728160
394222 165 17242757491249949468
463206 1 13407057202783989921
465052 167 18333450954066768794
484985 159 15729477304407600258
495365 180 17130987556120400085
5104073 3 18409165519726345113
7097593 13 18261656104932722666
7364860 26 18200597982000354286
84936 31 16343427189622684630
9999458 23 18407758127947576446

> <PUBCHEM_SHAPE_MULTIPOLES>
470.43
8.69
2.25
1.51
7.05
0.48
0.32
-0.23
-3.58
0.03
-0.07
-1.73
-0.39
-0.22

> <PUBCHEM_SHAPE_SELFOVERLAP>
1055.665

> <PUBCHEM_SHAPE_VOLUME>
248.8

> <PUBCHEM_COORDINATE_TYPE>
2
5
10

$$$$
