44566424
  -OEChem-08022503253D

 51 54  0     1  0  0  0  0  0999 V2000
    1.0072    1.5742    1.6363 O   0  0  0  0  0  0  0  0  0  0  0  0
    2.0444   -0.1757    2.6754 O   0  0  0  0  0  0  0  0  0  0  0  0
   -0.5657   -2.7669   -0.2158 O   0  0  0  0  0  0  0  0  0  0  0  0
   -3.1786   -2.2816   -0.6708 O   0  0  0  0  0  0  0  0  0  0  0  0
   -4.9183    0.0774    1.6917 O   0  0  0  0  0  0  0  0  0  0  0  0
    2.0571    0.4800   -0.7845 C   0  0  2  0  0  0  0  0  0  0  0  0
    1.3826   -0.4216    0.3129 C   0  0  2  0  0  0  0  0  0  0  0  0
    3.6198    0.4105   -0.8583 C   0  0  0  0  0  0  0  0  0  0  0  0
    1.4691    1.9219   -0.6966 C   0  0  0  0  0  0  0  0  0  0  0  0
    1.9762   -1.8392    0.3302 C   0  0  0  0  0  0  0  0  0  0  0  0
    4.0585   -1.0738   -0.8671 C   0  0  0  0  0  0  0  0  0  0  0  0
    0.3789    1.9580    0.3824 C   0  0  1  0  0  0  0  0  0  0  0  0
   -0.1302   -0.3954    0.0377 C   0  0  0  0  0  0  0  0  0  0  0  0
    3.5014   -1.8705    0.3084 C   0  0  0  0  0  0  0  0  0  0  0  0
   -0.6587    0.9119    0.0734 C   0  0  0  0  0  0  0  0  0  0  0  0
    1.5405    0.3037    1.6684 C   0  0  0  0  0  0  0  0  0  0  0  0
    4.3487    1.1438    0.2885 C   0  0  0  0  0  0  0  0  0  0  0  0
    4.0949    1.0544   -2.1817 C   0  0  0  0  0  0  0  0  0  0  0  0
   -0.9779   -1.4709   -0.2078 C   0  0  0  0  0  0  0  0  0  0  0  0
   -2.0090    1.1526   -0.1459 C   0  0  0  0  0  0  0  0  0  0  0  0
   -2.8492    0.0702   -0.4014 C   0  0  0  0  0  0  0  0  0  0  0  0
   -2.3374   -1.2324   -0.4300 C   0  0  0  0  0  0  0  0  0  0  0  0
   -4.3029    0.3213   -0.6366 C   0  0  1  0  0  0  0  0  0  0  0  0
   -5.0074    0.9619    0.5801 C   0  0  0  0  0  0  0  0  0  0  0  0
   -4.5441    1.1864   -1.8890 C   0  0  0  0  0  0  0  0  0  0  0  0
    1.7051    0.0779   -1.7499 H   0  0  0  0  0  0  0  0  0  0  0  0
    2.2363    2.6591   -0.4490 H   0  0  0  0  0  0  0  0  0  0  0  0
    1.0549    2.2072   -1.6718 H   0  0  0  0  0  0  0  0  0  0  0  0
    1.6202   -2.4067    1.1989 H   0  0  0  0  0  0  0  0  0  0  0  0
    1.6684   -2.3831   -0.5707 H   0  0  0  0  0  0  0  0  0  0  0  0
    3.7267   -1.5500   -1.7997 H   0  0  0  0  0  0  0  0  0  0  0  0
    5.1535   -1.1470   -0.8613 H   0  0  0  0  0  0  0  0  0  0  0  0
   -0.0533    2.9562    0.4986 H   0  0  0  0  0  0  0  0  0  0  0  0
    3.8354   -2.9117    0.2239 H   0  0  0  0  0  0  0  0  0  0  0  0
    3.9067   -1.4975    1.2544 H   0  0  0  0  0  0  0  0  0  0  0  0
    4.1589    2.2208    0.2811 H   0  0  0  0  0  0  0  0  0  0  0  0
    5.4347    1.0205    0.1937 H   0  0  0  0  0  0  0  0  0  0  0  0
    4.0774    0.7671    1.2755 H   0  0  0  0  0  0  0  0  0  0  0  0
    3.8481    2.1206   -2.2229 H   0  0  0  0  0  0  0  0  0  0  0  0
    3.6303    0.5712   -3.0486 H   0  0  0  0  0  0  0  0  0  0  0  0
    5.1811    0.9629   -2.2976 H   0  0  0  0  0  0  0  0  0  0  0  0
   -2.3855    2.1701   -0.1127 H   0  0  0  0  0  0  0  0  0  0  0  0
   -4.8168   -0.6306   -0.8189 H   0  0  0  0  0  0  0  0  0  0  0  0
   -1.2938   -3.3428    0.0709 H   0  0  0  0  0  0  0  0  0  0  0  0
   -2.6725   -3.0179   -1.0523 H   0  0  0  0  0  0  0  0  0  0  0  0
   -4.5610    1.9214    0.8606 H   0  0  0  0  0  0  0  0  0  0  0  0
   -6.0685    1.1254    0.3630 H   0  0  0  0  0  0  0  0  0  0  0  0
   -5.6164    1.2688   -2.0974 H   0  0  0  0  0  0  0  0  0  0  0  0
   -4.0649    0.7410   -2.7680 H   0  0  0  0  0  0  0  0  0  0  0  0
   -4.1504    2.2015   -1.7692 H   0  0  0  0  0  0  0  0  0  0  0  0
   -5.3780    0.5057    2.4338 H   0  0  0  0  0  0  0  0  0  0  0  0
  1 12  1  0  0  0  0
  1 16  1  0  0  0  0
  2 16  2  0  0  0  0
  3 19  1  0  0  0  0
  3 44  1  0  0  0  0
  4 22  1  0  0  0  0
  4 45  1  0  0  0  0
  5 24  1  0  0  0  0
  5 51  1  0  0  0  0
  6  7  1  0  0  0  0
  6  8  1  0  0  0  0
  6  9  1  0  0  0  0
  6 26  1  0  0  0  0
  7 10  1  0  0  0  0
  7 13  1  0  0  0  0
  7 16  1  0  0  0  0
  8 11  1  0  0  0  0
  8 17  1  0  0  0  0
  8 18  1  0  0  0  0
  9 12  1  0  0  0  0
  9 27  1  0  0  0  0
  9 28  1  0  0  0  0
 10 14  1  0  0  0  0
 10 29  1  0  0  0  0
 10 30  1  0  0  0  0
 11 14  1  0  0  0  0
 11 31  1  0  0  0  0
 11 32  1  0  0  0  0
 12 15  1  0  0  0  0
 12 33  1  0  0  0  0
 13 15  1  0  0  0  0
 13 19  2  0  0  0  0
 14 34  1  0  0  0  0
 14 35  1  0  0  0  0
 15 20  2  0  0  0  0
 17 36  1  0  0  0  0
 17 37  1  0  0  0  0
 17 38  1  0  0  0  0
 18 39  1  0  0  0  0
 18 40  1  0  0  0  0
 18 41  1  0  0  0  0
 19 22  1  0  0  0  0
 20 21  1  0  0  0  0
 20 42  1  0  0  0  0
 21 22  2  0  0  0  0
 21 23  1  0  0  0  0
 23 24  1  0  0  0  0
 23 25  1  0  0  0  0
 23 43  1  0  0  0  0
 24 46  1  0  0  0  0
 24 47  1  0  0  0  0
 25 48  1  0  0  0  0
 25 49  1  0  0  0  0
 25 50  1  0  0  0  0
M  END
> <PUBCHEM_COMPOUND_CID>
44566424

> <PUBCHEM_CONFORMER_RMSD>
0.6

> <PUBCHEM_CONFORMER_DIVERSEORDER>
1
5
2
4
3

> <PUBCHEM_MMFF94_PARTIAL_CHARGES>
20
1 -0.43
12 0.42
13 -0.14
15 -0.14
16 0.66
19 0.08
2 -0.57
20 -0.15
21 -0.14
22 0.08
23 0.14
24 0.28
3 -0.53
4 -0.53
42 0.15
44 0.45
45 0.45
5 -0.68
51 0.4
7 0.2

> <PUBCHEM_EFFECTIVE_ROTOR_COUNT>
3.2

> <PUBCHEM_PHARMACOPHORE_FEATURES>
10
1 2 acceptor
1 25 hydrophobe
1 3 donor
1 4 donor
1 5 acceptor
1 5 donor
3 8 17 18 hydrophobe
6 13 15 19 20 21 22 rings
6 6 7 8 10 11 14 rings
8 1 6 7 9 12 13 15 16 rings

> <PUBCHEM_HEAVY_ATOM_COUNT>
25

> <PUBCHEM_ATOM_DEF_STEREO_COUNT>
3

> <PUBCHEM_ATOM_UDEF_STEREO_COUNT>
1

> <PUBCHEM_BOND_DEF_STEREO_COUNT>
0

> <PUBCHEM_BOND_UDEF_STEREO_COUNT>
0

> <PUBCHEM_ISOTOPIC_ATOM_COUNT>
0

> <PUBCHEM_COMPONENT_COUNT>
1

> <PUBCHEM_CACTVS_TAUTO_COUNT>
34

> <PUBCHEM_CONFORMER_ID>
02A8079800000001

> <PUBCHEM_MMFF94_ENERGY>
93.7164

> <PUBCHEM_FEATURE_SELFOVERLAP>
50.784

> <PUBCHEM_SHAPE_FINGERPRINT>
10498660 4 18409158931103912197
10863032 1 18413110571857550110
10948715 1 17022908977424325132
11578080 2 17630890614834962720
12236239 1 17894343376517553504
12553582 1 18343300340726583025
12644460 14 18113904831750583785
12788726 201 17845390868012290456
128620 24 13334737933984517169
12892183 10 10807938133199547358
13134695 92 16487254395852092544
13140716 1 18342452673439001715
13224815 77 18260540148012020995
13583140 156 16588010321828061349
14115302 16 18412263917744530398
14289901 80 16008752403343429109
14790565 3 18269848514574274521
15196674 1 18411418427272372326
15475509 8 17344098219456834141
15788980 27 17894627050053276637
1601671 61 18409165510782910300
16752209 62 18268135471162972205
16945 1 18190755304706871980
17349148 13 17703783730894960655
1813 80 16954195926276360290
18186145 218 17988916778406699521
19862831 5 18260547822691350268
20691752 17 18188477068773465291
20775530 9 17482560685421921390
21033648 29 18261660507643771205
21069387 34 14405190585692187847
21267235 1 18337402530443532318
23493267 7 17604147022215183809
23557571 272 17415539168213523679
23559900 14 18273496793329210628
2748010 2 18053653952343092279
2838139 119 17169278233595157132
3004659 81 18336547123440267270
34934 24 18341891935298590924
463206 1 17203327745805616558
474 4 16660654002550012076
495365 180 16988263361484954714
5104073 3 18411134770594733122
633830 44 17703784830275005181
6442390 28 15647631045730186344
9981440 41 17394743113003277604

> <PUBCHEM_SHAPE_MULTIPOLES>
485.14
9.25
2.21
1.64
6.48
0.83
0.49
-1.42
-1.95
-0.41
-0.35
-0.44
-0.41
-0.32

> <PUBCHEM_SHAPE_SELFOVERLAP>
1064.221

> <PUBCHEM_SHAPE_VOLUME>
260.4

> <PUBCHEM_COORDINATE_TYPE>
2
5
10

$$$$
