23243692
  -OEChem-08022503263D

 54 57  0     1  0  0  0  0  0999 V2000
   -1.6668    0.7198   -1.8594 O   0  0  0  0  0  0  0  0  0  0  0  0
    0.0633    2.8391    0.5685 O   0  0  0  0  0  0  0  0  0  0  0  0
   -1.5190   -1.4991   -2.4527 O   0  0  0  0  0  0  0  0  0  0  0  0
    0.8954   -2.9281    0.3510 O   0  0  0  0  0  0  0  0  0  0  0  0
    3.5058   -2.4165    0.5317 O   0  0  0  0  0  0  0  0  0  0  0  0
   -1.8888    0.4444    0.4542 C   0  0  2  0  0  0  0  0  0  0  0  0
   -1.1552   -0.7857   -0.1274 C   0  0  2  0  0  0  0  0  0  0  0  0
   -3.4304    0.2977    0.7087 C   0  0  0  0  0  0  0  0  0  0  0  0
   -1.5137    1.4566   -0.6284 C   0  0  1  0  0  0  0  0  0  0  0  0
   -1.6435   -2.1189    0.4587 C   0  0  0  0  0  0  0  0  0  0  0  0
   -3.7047   -1.0472    1.4135 C   0  0  0  0  0  0  0  0  0  0  0  0
    0.3678   -0.5717   -0.0029 C   0  0  0  0  0  0  0  0  0  0  0  0
   -3.1524   -2.2305    0.6314 C   0  0  0  0  0  0  0  0  0  0  0  0
   -0.0449    1.8941   -0.4930 C   0  0  2  0  0  0  0  0  0  0  0  0
   -1.4778   -0.6206   -1.6070 C   0  0  0  0  0  0  0  0  0  0  0  0
    0.8849    0.7340   -0.1929 C   0  0  0  0  0  0  0  0  0  0  0  0
   -4.3243    0.4028   -0.5481 C   0  0  0  0  0  0  0  0  0  0  0  0
   -3.8760    1.4345    1.6599 C   0  0  0  0  0  0  0  0  0  0  0  0
    1.2689   -1.6221    0.2300 C   0  0  0  0  0  0  0  0  0  0  0  0
    2.2681    0.9589   -0.1206 C   0  0  0  0  0  0  0  0  0  0  0  0
    3.1416   -0.0955    0.1311 C   0  0  0  0  0  0  0  0  0  0  0  0
    2.6431   -1.3831    0.3030 C   0  0  0  0  0  0  0  0  0  0  0  0
    4.6085    0.1742    0.2020 C   0  0  0  0  0  0  0  0  0  0  0  0
   -0.3968    4.1205    0.1679 C   0  0  0  0  0  0  0  0  0  0  0  0
    4.9742    1.1346    1.3487 C   0  0  0  0  0  0  0  0  0  0  0  0
    5.1726    0.7074   -1.1278 C   0  0  0  0  0  0  0  0  0  0  0  0
   -1.4373    0.7208    1.4185 H   0  0  0  0  0  0  0  0  0  0  0  0
   -2.1968    2.3067   -0.6545 H   0  0  0  0  0  0  0  0  0  0  0  0
   -1.2014   -2.2711    1.4523 H   0  0  0  0  0  0  0  0  0  0  0  0
   -1.3477   -2.9597   -0.1795 H   0  0  0  0  0  0  0  0  0  0  0  0
   -4.7825   -1.1872    1.5649 H   0  0  0  0  0  0  0  0  0  0  0  0
   -3.2523   -1.0426    2.4144 H   0  0  0  0  0  0  0  0  0  0  0  0
    0.2942    2.3339   -1.4416 H   0  0  0  0  0  0  0  0  0  0  0  0
   -3.6403   -2.3159   -0.3452 H   0  0  0  0  0  0  0  0  0  0  0  0
   -3.3836   -3.1575    1.1700 H   0  0  0  0  0  0  0  0  0  0  0  0
   -4.2477    1.3860   -1.0235 H   0  0  0  0  0  0  0  0  0  0  0  0
   -4.0908   -0.3527   -1.3016 H   0  0  0  0  0  0  0  0  0  0  0  0
   -5.3801    0.2663   -0.2831 H   0  0  0  0  0  0  0  0  0  0  0  0
   -3.7110    2.4197    1.2105 H   0  0  0  0  0  0  0  0  0  0  0  0
   -4.9420    1.3537    1.9017 H   0  0  0  0  0  0  0  0  0  0  0  0
   -3.3230    1.4036    2.6056 H   0  0  0  0  0  0  0  0  0  0  0  0
    2.6456    1.9678   -0.2694 H   0  0  0  0  0  0  0  0  0  0  0  0
    5.1532   -0.7555    0.4069 H   0  0  0  0  0  0  0  0  0  0  0  0
   -0.1391    4.8294    0.9605 H   0  0  0  0  0  0  0  0  0  0  0  0
   -1.4824    4.1441    0.0500 H   0  0  0  0  0  0  0  0  0  0  0  0
    0.0959    4.4520   -0.7516 H   0  0  0  0  0  0  0  0  0  0  0  0
    1.5875   -3.4997   -0.0214 H   0  0  0  0  0  0  0  0  0  0  0  0
    3.0381   -3.1251    1.0040 H   0  0  0  0  0  0  0  0  0  0  0  0
    4.5570    2.1357    1.1955 H   0  0  0  0  0  0  0  0  0  0  0  0
    6.0617    1.2373    1.4312 H   0  0  0  0  0  0  0  0  0  0  0  0
    4.5987    0.7574    2.3066 H   0  0  0  0  0  0  0  0  0  0  0  0
    4.7643    1.6911   -1.3830 H   0  0  0  0  0  0  0  0  0  0  0  0
    4.9396    0.0231   -1.9513 H   0  0  0  0  0  0  0  0  0  0  0  0
    6.2621    0.8053   -1.0707 H   0  0  0  0  0  0  0  0  0  0  0  0
  1  9  1  0  0  0  0
  1 15  1  0  0  0  0
  2 14  1  0  0  0  0
  2 24  1  0  0  0  0
  3 15  2  0  0  0  0
  4 19  1  0  0  0  0
  4 47  1  0  0  0  0
  5 22  1  0  0  0  0
  5 48  1  0  0  0  0
  6  7  1  0  0  0  0
  6  8  1  0  0  0  0
  6  9  1  0  0  0  0
  6 27  1  0  0  0  0
  7 10  1  0  0  0  0
  7 12  1  0  0  0  0
  7 15  1  0  0  0  0
  8 11  1  0  0  0  0
  8 17  1  0  0  0  0
  8 18  1  0  0  0  0
  9 14  1  0  0  0  0
  9 28  1  0  0  0  0
 10 13  1  0  0  0  0
 10 29  1  0  0  0  0
 10 30  1  0  0  0  0
 11 13  1  0  0  0  0
 11 31  1  0  0  0  0
 11 32  1  0  0  0  0
 12 16  1  0  0  0  0
 12 19  2  0  0  0  0
 13 34  1  0  0  0  0
 13 35  1  0  0  0  0
 14 16  1  0  0  0  0
 14 33  1  0  0  0  0
 16 20  2  0  0  0  0
 17 36  1  0  0  0  0
 17 37  1  0  0  0  0
 17 38  1  0  0  0  0
 18 39  1  0  0  0  0
 18 40  1  0  0  0  0
 18 41  1  0  0  0  0
 19 22  1  0  0  0  0
 20 21  1  0  0  0  0
 20 42  1  0  0  0  0
 21 22  2  0  0  0  0
 21 23  1  0  0  0  0
 23 25  1  0  0  0  0
 23 26  1  0  0  0  0
 23 43  1  0  0  0  0
 24 44  1  0  0  0  0
 24 45  1  0  0  0  0
 24 46  1  0  0  0  0
 25 49  1  0  0  0  0
 25 50  1  0  0  0  0
 25 51  1  0  0  0  0
 26 52  1  0  0  0  0
 26 53  1  0  0  0  0
 26 54  1  0  0  0  0
M  END
> <PUBCHEM_COMPOUND_CID>
23243692

> <PUBCHEM_CONFORMER_RMSD>
0.6

> <PUBCHEM_CONFORMER_DIVERSEORDER>
1
4
2
3

> <PUBCHEM_MMFF94_PARTIAL_CHARGES>
20
1 -0.43
12 -0.14
14 0.42
15 0.66
16 -0.14
19 0.08
2 -0.56
20 -0.15
21 -0.14
22 0.08
23 0.14
24 0.28
3 -0.57
4 -0.53
42 0.15
47 0.45
48 0.45
5 -0.53
7 0.2
9 0.28

> <PUBCHEM_EFFECTIVE_ROTOR_COUNT>
3.2

> <PUBCHEM_PHARMACOPHORE_FEATURES>
9
1 2 acceptor
1 3 acceptor
1 4 donor
1 5 donor
3 23 25 26 hydrophobe
3 8 17 18 hydrophobe
6 12 16 19 20 21 22 rings
6 6 7 8 10 11 13 rings
8 1 6 7 9 12 14 15 16 rings

> <PUBCHEM_HEAVY_ATOM_COUNT>
26

> <PUBCHEM_ATOM_DEF_STEREO_COUNT>
4

> <PUBCHEM_ATOM_UDEF_STEREO_COUNT>
0

> <PUBCHEM_BOND_DEF_STEREO_COUNT>
0

> <PUBCHEM_BOND_UDEF_STEREO_COUNT>
0

> <PUBCHEM_ISOTOPIC_ATOM_COUNT>
0

> <PUBCHEM_COMPONENT_COUNT>
1

> <PUBCHEM_CACTVS_TAUTO_COUNT>
34

> <PUBCHEM_CONFORMER_ID>
0162ABAC00000001

> <PUBCHEM_MMFF94_ENERGY>
95.6794

> <PUBCHEM_FEATURE_SELFOVERLAP>
45.712

> <PUBCHEM_SHAPE_FINGERPRINT>
10006869 2 18125157134970815977
10863032 1 18410862053156441915
10906281 52 18197513839669843197
10967382 1 18408604742746637418
1100329 8 18267031733260711185
11132069 177 18259706700543777971
11578080 2 16806723958864644542
12011746 2 18408886244030994759
12236239 1 17917708002860413439
12403814 3 18270672082752242233
12553582 1 18410851088358168572
12633257 1 18265636423151120353
12788726 201 18267295439567750440
13027679 85 18409447016056669509
13132413 78 18342182205935982377
13140716 1 18336543828847170314
13214271 11 18410854386534238799
13224815 77 18410001140168509842
13965767 371 17555491377601770281
14142880 1 18272927237167526921
14223421 5 18193281792895266698
14787075 74 17968947508083444914
14790565 3 18192164882840797484
14955137 171 18128838488672955160
15163728 17 15696895635271022449
15196674 1 18335141972753745715
15209289 33 18337676437386946794
15927050 60 17114397389935010094
16945 1 18335435555817951781
17349148 13 17894345575936285730
17980427 23 18060148635212898601
19591789 44 18119819259489163628
19784866 170 18336838514968592746
20028762 73 17983585383552234607
20510252 161 18339358535553645528
23419403 2 17682379696603085015
23558518 356 17404014821570409141
23559900 14 18188768332619265450
3286 77 18044659943107042627
3380486 145 18260558822740833881
34934 24 18410852144624412475
350125 39 18119538875629123731
352729 6 17622157962970537528
392239 28 18339078297949418808
5104073 3 18408606928906350898
633830 44 18201156654851923564

> <PUBCHEM_SHAPE_MULTIPOLES>
505.72
8.4
3.16
1.42
7.07
1.49
-0.51
0.04
2.08
-0.37
0.53
-0.78
-0.05
-0.14

> <PUBCHEM_SHAPE_SELFOVERLAP>
1107.173

> <PUBCHEM_SHAPE_VOLUME>
275.3

> <PUBCHEM_COORDINATE_TYPE>
2
5
10

$$$$
