10215621
  -OEChem-08022503253D

 52 55  0     1  0  0  0  0  0999 V2000
    1.3429    2.4461    0.3106 O   0  0  0  0  0  0  0  0  0  0  0  0
    2.4443    1.7604    2.1807 O   0  0  0  0  0  0  0  0  0  0  0  0
   -0.4341   -2.0105    1.7114 O   0  0  0  0  0  0  0  0  0  0  0  0
   -3.0407   -1.8091    1.0510 O   0  0  0  0  0  0  0  0  0  0  0  0
   -3.9106   -1.0676   -2.6303 O   0  0  0  0  0  0  0  0  0  0  0  0
   -4.5840    1.6864    1.2995 O   0  0  0  0  0  0  0  0  0  0  0  0
    2.1927   -0.0717   -0.8445 C   0  0  2  0  0  0  0  0  0  0  0  0
    1.6048    0.0430    0.6117 C   0  0  2  0  0  0  0  0  0  0  0  0
    3.6882   -0.4927   -0.9119 C   0  0  0  0  0  0  0  0  0  0  0  0
    1.7756    1.1814   -1.6665 C   0  0  0  0  0  0  0  0  0  0  0  0
    2.2244   -1.0059    1.5580 C   0  0  0  0  0  0  0  0  0  0  0  0
    3.8683   -1.8593   -0.1813 C   0  0  0  0  0  0  0  0  0  0  0  0
    0.6943    1.9457   -0.8859 C   0  0  1  0  0  0  0  0  0  0  0  0
    0.0863   -0.0366    0.4043 C   0  0  0  0  0  0  0  0  0  0  0  0
    2.7483   -2.2216    0.8036 C   0  0  0  0  0  0  0  0  0  0  0  0
   -0.3910    1.0041   -0.4262 C   0  0  0  0  0  0  0  0  0  0  0  0
    1.8697    1.4805    1.1367 C   0  0  0  0  0  0  0  0  0  0  0  0
    4.6366    0.5487   -0.2824 C   0  0  0  0  0  0  0  0  0  0  0  0
    4.1209   -0.6694   -2.3846 C   0  0  0  0  0  0  0  0  0  0  0  0
   -0.8010   -0.9879    0.8944 C   0  0  0  0  0  0  0  0  0  0  0  0
   -1.7371    1.1052   -0.7527 C   0  0  0  0  0  0  0  0  0  0  0  0
   -2.6210    0.1518   -0.2497 C   0  0  0  0  0  0  0  0  0  0  0  0
   -2.1561   -0.8873    0.5661 C   0  0  0  0  0  0  0  0  0  0  0  0
   -4.0721    0.2593   -0.5895 C   0  0  0  0  0  0  0  0  0  0  0  0
   -4.5950   -0.9609   -1.3862 C   0  0  0  0  0  0  0  0  0  0  0  0
   -4.9546    0.4679    0.6639 C   0  0  0  0  0  0  0  0  0  0  0  0
    1.6561   -0.9046   -1.3332 H   0  0  0  0  0  0  0  0  0  0  0  0
    1.3951    0.8674   -2.6460 H   0  0  0  0  0  0  0  0  0  0  0  0
    2.6289    1.8444   -1.8395 H   0  0  0  0  0  0  0  0  0  0  0  0
    1.5672   -1.2897    2.3819 H   0  0  0  0  0  0  0  0  0  0  0  0
    3.0924   -0.5765    2.0756 H   0  0  0  0  0  0  0  0  0  0  0  0
    4.8259   -1.8694    0.3557 H   0  0  0  0  0  0  0  0  0  0  0  0
    3.9368   -2.6788   -0.9087 H   0  0  0  0  0  0  0  0  0  0  0  0
    0.3035    2.7966   -1.4513 H   0  0  0  0  0  0  0  0  0  0  0  0
    3.1266   -2.9648    1.5153 H   0  0  0  0  0  0  0  0  0  0  0  0
    1.9261   -2.7062    0.2633 H   0  0  0  0  0  0  0  0  0  0  0  0
    4.5137    1.5392   -0.7306 H   0  0  0  0  0  0  0  0  0  0  0  0
    4.4923    0.6480    0.7956 H   0  0  0  0  0  0  0  0  0  0  0  0
    5.6840    0.2587   -0.4311 H   0  0  0  0  0  0  0  0  0  0  0  0
    5.1430   -1.0600   -2.4505 H   0  0  0  0  0  0  0  0  0  0  0  0
    3.4636   -1.3726   -2.9084 H   0  0  0  0  0  0  0  0  0  0  0  0
    4.0980    0.2792   -2.9312 H   0  0  0  0  0  0  0  0  0  0  0  0
   -2.0818    1.9153   -1.3881 H   0  0  0  0  0  0  0  0  0  0  0  0
   -4.2047    1.1426   -1.2306 H   0  0  0  0  0  0  0  0  0  0  0  0
   -1.0073   -2.7776    1.5466 H   0  0  0  0  0  0  0  0  0  0  0  0
   -2.6872   -2.1968    1.8682 H   0  0  0  0  0  0  0  0  0  0  0  0
   -5.6611   -0.8396   -1.6086 H   0  0  0  0  0  0  0  0  0  0  0  0
   -4.4831   -1.9104   -0.8582 H   0  0  0  0  0  0  0  0  0  0  0  0
   -6.0095    0.5511    0.3795 H   0  0  0  0  0  0  0  0  0  0  0  0
   -4.8804   -0.3355    1.3996 H   0  0  0  0  0  0  0  0  0  0  0  0
   -4.0463   -0.2339   -3.1119 H   0  0  0  0  0  0  0  0  0  0  0  0
   -4.7076    2.4038    0.6549 H   0  0  0  0  0  0  0  0  0  0  0  0
  1 13  1  0  0  0  0
  1 17  1  0  0  0  0
  2 17  2  0  0  0  0
  3 20  1  0  0  0  0
  3 45  1  0  0  0  0
  4 23  1  0  0  0  0
  4 46  1  0  0  0  0
  5 25  1  0  0  0  0
  5 51  1  0  0  0  0
  6 26  1  0  0  0  0
  6 52  1  0  0  0  0
  7  8  1  0  0  0  0
  7  9  1  0  0  0  0
  7 10  1  0  0  0  0
  7 27  1  0  0  0  0
  8 11  1  0  0  0  0
  8 14  1  0  0  0  0
  8 17  1  0  0  0  0
  9 12  1  0  0  0  0
  9 18  1  0  0  0  0
  9 19  1  0  0  0  0
 10 13  1  0  0  0  0
 10 28  1  0  0  0  0
 10 29  1  0  0  0  0
 11 15  1  0  0  0  0
 11 30  1  0  0  0  0
 11 31  1  0  0  0  0
 12 15  1  0  0  0  0
 12 32  1  0  0  0  0
 12 33  1  0  0  0  0
 13 16  1  0  0  0  0
 13 34  1  0  0  0  0
 14 16  1  0  0  0  0
 14 20  2  0  0  0  0
 15 35  1  0  0  0  0
 15 36  1  0  0  0  0
 16 21  2  0  0  0  0
 18 37  1  0  0  0  0
 18 38  1  0  0  0  0
 18 39  1  0  0  0  0
 19 40  1  0  0  0  0
 19 41  1  0  0  0  0
 19 42  1  0  0  0  0
 20 23  1  0  0  0  0
 21 22  1  0  0  0  0
 21 43  1  0  0  0  0
 22 23  2  0  0  0  0
 22 24  1  0  0  0  0
 24 25  1  0  0  0  0
 24 26  1  0  0  0  0
 24 44  1  0  0  0  0
 25 47  1  0  0  0  0
 25 48  1  0  0  0  0
 26 49  1  0  0  0  0
 26 50  1  0  0  0  0
M  END
> <PUBCHEM_COMPOUND_CID>
10215621

> <PUBCHEM_CONFORMER_RMSD>
0.8

> <PUBCHEM_CONFORMER_DIVERSEORDER>
2
3
4
1

> <PUBCHEM_MMFF94_PARTIAL_CHARGES>
23
1 -0.43
13 0.42
14 -0.14
16 -0.14
17 0.66
2 -0.57
20 0.08
21 -0.15
22 -0.14
23 0.08
24 0.14
25 0.28
26 0.28
3 -0.53
4 -0.53
43 0.15
45 0.45
46 0.45
5 -0.68
51 0.4
52 0.4
6 -0.68
8 0.2

> <PUBCHEM_EFFECTIVE_ROTOR_COUNT>
4.2

> <PUBCHEM_PHARMACOPHORE_FEATURES>
11
1 2 acceptor
1 3 donor
1 4 donor
1 5 acceptor
1 5 donor
1 6 acceptor
1 6 donor
3 9 18 19 hydrophobe
6 14 16 20 21 22 23 rings
6 7 8 9 11 12 15 rings
8 1 7 8 10 13 14 16 17 rings

> <PUBCHEM_HEAVY_ATOM_COUNT>
26

> <PUBCHEM_ATOM_DEF_STEREO_COUNT>
2

> <PUBCHEM_ATOM_UDEF_STEREO_COUNT>
1

> <PUBCHEM_BOND_DEF_STEREO_COUNT>
0

> <PUBCHEM_BOND_UDEF_STEREO_COUNT>
0

> <PUBCHEM_ISOTOPIC_ATOM_COUNT>
0

> <PUBCHEM_COMPONENT_COUNT>
1

> <PUBCHEM_CACTVS_TAUTO_COUNT>
18

> <PUBCHEM_CONFORMER_ID>
009BE0C500000002

> <PUBCHEM_MMFF94_ENERGY>
103.9691

> <PUBCHEM_FEATURE_SELFOVERLAP>
55.857

> <PUBCHEM_SHAPE_FINGERPRINT>
10498660 4 17312818303447084551
10863032 1 18041287586621282126
11405975 8 17275387612365740537
11578080 2 18126299759374626216
11796584 16 16988848241620738559
12236239 1 18413110533535277113
12553582 1 18114178618767645189
12788726 201 18126300644269939336
12892183 10 14333128525373782926
13134695 92 18341894095482725740
13140716 1 17751370687975393176
13224815 77 17168140161460287561
13583140 156 15410599385723915947
14289901 80 17346026900685961025
14790565 3 17969795064024279781
15209289 33 18336551525676003601
15788980 27 17346598578076250751
1601671 61 17894917325507653980
16752209 62 17822839893316713349
16945 1 17967806167500394401
17349148 13 18043227211031849515
17492 89 17560795593545445007
18186145 218 18260261980165370497
19862831 5 18407761447688147549
20691752 17 18113890567985085769
20775530 9 17685765827376693626
21033648 29 14763775296364126443
21069387 34 17489875959265716847
22182313 1 18042968881296494963
23557571 272 18122899004512285179
23559900 14 18187372056183951516
2748010 2 17608946617670955256
2838139 119 15141824962895588286
34934 24 18261397775682352366
350125 39 17895772802006083923
394222 165 15983399988499249168
463206 1 18271524174268641638
484985 159 14898662125014803878
5895379 119 16271105712541480833
633830 44 18408321116508321757
9981440 41 17408227527447557745

> <PUBCHEM_SHAPE_MULTIPOLES>
499.85
9.23
2.15
1.94
6.49
0.36
-0.52
0.96
-2.78
-0.87
0.57
-0.11
-0.2
-0.19

> <PUBCHEM_SHAPE_SELFOVERLAP>
1094.57

> <PUBCHEM_SHAPE_VOLUME>
267

> <PUBCHEM_COORDINATE_TYPE>
2
5
10

$$$$
