13820510
  -OEChem-08022503253D

 51 54  0     1  0  0  0  0  0999 V2000
   -0.8071   -1.7441    1.6028 O   0  0  0  0  0  0  0  0  0  0  0  0
   -2.3247   -2.7028   -0.5229 O   0  0  0  0  0  0  0  0  0  0  0  0
   -1.9213   -0.1797    2.8240 O   0  0  0  0  0  0  0  0  0  0  0  0
    0.8830    2.7771    0.3288 O   0  0  0  0  0  0  0  0  0  0  0  0
    3.4787    2.2846   -0.1821 O   0  0  0  0  0  0  0  0  0  0  0  0
   -1.7616   -0.2691   -0.7028 C   0  0  2  0  0  0  0  0  0  0  0  0
   -1.1292    0.4299    0.5653 C   0  0  2  0  0  0  0  0  0  0  0  0
   -3.2519    0.0987   -0.9749 C   0  0  0  0  0  0  0  0  0  0  0  0
   -1.2892   -1.7601   -0.7491 C   0  0  1  0  0  0  0  0  0  0  0  0
   -1.7404    1.8228    0.8181 C   0  0  0  0  0  0  0  0  0  0  0  0
   -3.3653    1.6521   -1.1285 C   0  0  0  0  0  0  0  0  0  0  0  0
   -0.1861   -1.9689    0.3076 C   0  0  1  0  0  0  0  0  0  0  0  0
    0.3862    0.4015    0.3075 C   0  0  0  0  0  0  0  0  0  0  0  0
   -2.2452    2.4643   -0.4668 C   0  0  0  0  0  0  0  0  0  0  0  0
    0.8797   -0.9151    0.1606 C   0  0  0  0  0  0  0  0  0  0  0  0
   -1.3553   -0.4968    1.7861 C   0  0  0  0  0  0  0  0  0  0  0  0
   -3.7300   -0.5350   -2.3011 C   0  0  0  0  0  0  0  0  0  0  0  0
   -4.2270   -0.3562    0.1308 C   0  0  0  0  0  0  0  0  0  0  0  0
    1.2575    1.4783    0.1842 C   0  0  0  0  0  0  0  0  0  0  0  0
    2.2235   -1.1584   -0.0922 C   0  0  0  0  0  0  0  0  0  0  0  0
    3.0904   -0.0730   -0.2061 C   0  0  0  0  0  0  0  0  0  0  0  0
    2.6104    1.2352   -0.0705 C   0  0  0  0  0  0  0  0  0  0  0  0
    4.5392   -0.3277   -0.4690 C   0  0  0  0  0  0  0  0  0  0  0  0
    4.7752   -1.0355   -1.8156 C   0  0  0  0  0  0  0  0  0  0  0  0
    5.2106   -1.1224    0.6658 C   0  0  0  0  0  0  0  0  0  0  0  0
   -1.2318    0.1791   -1.5638 H   0  0  0  0  0  0  0  0  0  0  0  0
   -0.8885   -1.9626   -1.7507 H   0  0  0  0  0  0  0  0  0  0  0  0
   -1.0770    2.4887    1.3740 H   0  0  0  0  0  0  0  0  0  0  0  0
   -2.6105    1.7399    1.4818 H   0  0  0  0  0  0  0  0  0  0  0  0
   -4.3296    1.9941   -0.7300 H   0  0  0  0  0  0  0  0  0  0  0  0
   -3.3794    1.9317   -2.1904 H   0  0  0  0  0  0  0  0  0  0  0  0
    0.2123   -2.9880    0.3018 H   0  0  0  0  0  0  0  0  0  0  0  0
   -2.6134    3.4755   -0.2571 H   0  0  0  0  0  0  0  0  0  0  0  0
   -1.4161    2.5829   -1.1746 H   0  0  0  0  0  0  0  0  0  0  0  0
   -3.7897   -1.6254   -2.2408 H   0  0  0  0  0  0  0  0  0  0  0  0
   -4.7290   -0.1725   -2.5713 H   0  0  0  0  0  0  0  0  0  0  0  0
   -3.0536   -0.2835   -3.1259 H   0  0  0  0  0  0  0  0  0  0  0  0
   -5.2608   -0.1059   -0.1377 H   0  0  0  0  0  0  0  0  0  0  0  0
   -4.1988   -1.4365    0.2912 H   0  0  0  0  0  0  0  0  0  0  0  0
   -4.0291    0.1242    1.0908 H   0  0  0  0  0  0  0  0  0  0  0  0
    2.5743   -2.1804   -0.1960 H   0  0  0  0  0  0  0  0  0  0  0  0
   -1.9324   -3.5909   -0.5756 H   0  0  0  0  0  0  0  0  0  0  0  0
    5.0840    0.6221   -0.5317 H   0  0  0  0  0  0  0  0  0  0  0  0
    1.4265    3.3361   -0.2511 H   0  0  0  0  0  0  0  0  0  0  0  0
    3.1238    3.0496    0.2997 H   0  0  0  0  0  0  0  0  0  0  0  0
    5.8478   -1.1226   -2.0206 H   0  0  0  0  0  0  0  0  0  0  0  0
    4.3212   -0.4699   -2.6371 H   0  0  0  0  0  0  0  0  0  0  0  0
    4.3519   -2.0456   -1.8293 H   0  0  0  0  0  0  0  0  0  0  0  0
    4.8044   -2.1356    0.7545 H   0  0  0  0  0  0  0  0  0  0  0  0
    5.0704   -0.6189    1.6289 H   0  0  0  0  0  0  0  0  0  0  0  0
    6.2877   -1.2112    0.4871 H   0  0  0  0  0  0  0  0  0  0  0  0
  1 12  1  0  0  0  0
  1 16  1  0  0  0  0
  2  9  1  0  0  0  0
  2 42  1  0  0  0  0
  3 16  2  0  0  0  0
  4 19  1  0  0  0  0
  4 44  1  0  0  0  0
  5 22  1  0  0  0  0
  5 45  1  0  0  0  0
  6  7  1  0  0  0  0
  6  8  1  0  0  0  0
  6  9  1  0  0  0  0
  6 26  1  0  0  0  0
  7 10  1  0  0  0  0
  7 13  1  0  0  0  0
  7 16  1  0  0  0  0
  8 11  1  0  0  0  0
  8 17  1  0  0  0  0
  8 18  1  0  0  0  0
  9 12  1  0  0  0  0
  9 27  1  0  0  0  0
 10 14  1  0  0  0  0
 10 28  1  0  0  0  0
 10 29  1  0  0  0  0
 11 14  1  0  0  0  0
 11 30  1  0  0  0  0
 11 31  1  0  0  0  0
 12 15  1  0  0  0  0
 12 32  1  0  0  0  0
 13 15  2  0  0  0  0
 13 19  1  0  0  0  0
 14 33  1  0  0  0  0
 14 34  1  0  0  0  0
 15 20  1  0  0  0  0
 17 35  1  0  0  0  0
 17 36  1  0  0  0  0
 17 37  1  0  0  0  0
 18 38  1  0  0  0  0
 18 39  1  0  0  0  0
 18 40  1  0  0  0  0
 19 22  2  0  0  0  0
 20 21  2  0  0  0  0
 20 41  1  0  0  0  0
 21 22  1  0  0  0  0
 21 23  1  0  0  0  0
 23 24  1  0  0  0  0
 23 25  1  0  0  0  0
 23 43  1  0  0  0  0
 24 46  1  0  0  0  0
 24 47  1  0  0  0  0
 24 48  1  0  0  0  0
 25 49  1  0  0  0  0
 25 50  1  0  0  0  0
 25 51  1  0  0  0  0
M  END
> <PUBCHEM_COMPOUND_CID>
13820510

> <PUBCHEM_CONFORMER_RMSD>
0.6

> <PUBCHEM_CONFORMER_DIVERSEORDER>
1

> <PUBCHEM_MMFF94_PARTIAL_CHARGES>
20
1 -0.43
12 0.42
13 -0.14
15 -0.14
16 0.66
19 0.08
2 -0.68
20 -0.15
21 -0.14
22 0.08
23 0.14
3 -0.57
4 -0.53
41 0.15
42 0.4
44 0.45
45 0.45
5 -0.53
7 0.2
9 0.28

> <PUBCHEM_EFFECTIVE_ROTOR_COUNT>
2.2

> <PUBCHEM_PHARMACOPHORE_FEATURES>
10
1 2 acceptor
1 2 donor
1 3 acceptor
1 4 donor
1 5 donor
3 23 24 25 hydrophobe
3 8 17 18 hydrophobe
6 13 15 19 20 21 22 rings
6 6 7 8 10 11 14 rings
8 1 6 7 9 12 13 15 16 rings

> <PUBCHEM_HEAVY_ATOM_COUNT>
25

> <PUBCHEM_ATOM_DEF_STEREO_COUNT>
4

> <PUBCHEM_ATOM_UDEF_STEREO_COUNT>
0

> <PUBCHEM_BOND_DEF_STEREO_COUNT>
0

> <PUBCHEM_BOND_UDEF_STEREO_COUNT>
0

> <PUBCHEM_ISOTOPIC_ATOM_COUNT>
0

> <PUBCHEM_COMPONENT_COUNT>
1

> <PUBCHEM_CACTVS_TAUTO_COUNT>
34

> <PUBCHEM_CONFORMER_ID>
00D2E25E00000001

> <PUBCHEM_MMFF94_ENERGY>
107.0863

> <PUBCHEM_FEATURE_SELFOVERLAP>
50.781

> <PUBCHEM_SHAPE_FINGERPRINT>
10863032 1 18126560352409792429
10948715 1 18114175307458441357
11315181 36 18260265240525732618
12035759 4 18341884161033433407
12236239 1 17632863010062457627
12553582 1 18340223903482530974
12592029 89 18410012096261226155
12892183 10 11097854039027879317
13140716 1 18268709583393387843
13224815 77 18131077064925829840
13583140 156 17313393348408167512
13994607 96 17822593623854248469
15163728 17 16009857313560246885
15209294 21 11674886584648610812
16752209 62 18263361400454637352
16945 1 18337934754258686827
17349148 13 18131347488798830406
17492 54 18262222332040831149
1813 80 13686009964391969217
18186145 218 18261662749046370421
18981168 100 17386868264083698276
192875 21 18201429298880105196
19862831 5 18343297059176104476
200 152 17346596391489692686
20600515 1 14620503584157165329
20775438 99 16403602636594286791
21033648 29 16298376942352501669
21069387 34 17704074001584976460
22907989 373 17897186773268196997
23402539 116 18272641320967681492
23419403 2 17679884853570275017
23493267 7 17240772756940192920
23559900 14 18200305650005942680
25 1 18042116575048412653
2748010 2 17834670878664784945
350125 39 18410577241211954357
463206 1 16558168536346448975
9709674 26 18343299301481511340
9981440 41 17973426978669300224

> <PUBCHEM_SHAPE_MULTIPOLES>
485.14
8.25
2.51
1.66
8.01
0.75
0.36
-0.86
-3.26
-0.5
-0.08
-1.13
-0.46
0.15

> <PUBCHEM_SHAPE_SELFOVERLAP>
1065.695

> <PUBCHEM_SHAPE_VOLUME>
259.3

> <PUBCHEM_COORDINATE_TYPE>
2
5
10

$$$$
