46883406
  -OEChem-08022503263D

 54 57  0     1  0  0  0  0  0999 V2000
    1.6648    1.2051    1.4125 O   0  0  0  0  0  0  0  0  0  0  0  0
   -0.3834    2.9360    0.6508 O   0  0  0  0  0  0  0  0  0  0  0  0
    1.5671   -0.7646    2.5990 O   0  0  0  0  0  0  0  0  0  0  0  0
   -0.8346   -2.9417    0.3511 O   0  0  0  0  0  0  0  0  0  0  0  0
   -3.4541   -2.5396    0.0533 O   0  0  0  0  0  0  0  0  0  0  0  0
    1.9039    0.3032   -0.7335 C   0  0  2  0  0  0  0  0  0  0  0  0
    1.1850   -0.7276    0.1700 C   0  0  2  0  0  0  0  0  0  0  0  0
    3.4472    0.1123   -0.9397 C   0  0  0  0  0  0  0  0  0  0  0  0
    1.5125    1.5702    0.0218 C   0  0  1  0  0  0  0  0  0  0  0  0
    1.6905   -2.1647   -0.0279 C   0  0  0  0  0  0  0  0  0  0  0  0
    3.7390   -1.3711   -1.2485 C   0  0  0  0  0  0  0  0  0  0  0  0
   -0.3429   -0.5764    0.0078 C   0  0  0  0  0  0  0  0  0  0  0  0
    3.2008   -2.3009   -0.1700 C   0  0  0  0  0  0  0  0  0  0  0  0
    0.0412    1.9253   -0.2578 C   0  0  1  0  0  0  0  0  0  0  0  0
    1.5069   -0.1557    1.5433 C   0  0  0  0  0  0  0  0  0  0  0  0
   -0.8797    0.7233   -0.1731 C   0  0  0  0  0  0  0  0  0  0  0  0
    4.0890    0.9973   -2.0326 C   0  0  0  0  0  0  0  0  0  0  0  0
    4.1627    0.4742    0.3840 C   0  0  0  0  0  0  0  0  0  0  0  0
   -1.2285   -1.6618    0.0951 C   0  0  0  0  0  0  0  0  0  0  0  0
   -2.2653    0.8964   -0.3106 C   0  0  0  0  0  0  0  0  0  0  0  0
   -3.1235   -0.1980   -0.2403 C   0  0  0  0  0  0  0  0  0  0  0  0
   -2.6063   -1.4728   -0.0327 C   0  0  0  0  0  0  0  0  0  0  0  0
   -4.5938    0.0187   -0.3848 C   0  0  0  0  0  0  0  0  0  0  0  0
    0.1394    4.2074    0.2944 C   0  0  0  0  0  0  0  0  0  0  0  0
   -5.1684    0.9107    0.7309 C   0  0  0  0  0  0  0  0  0  0  0  0
   -4.9696    0.5949   -1.7624 C   0  0  0  0  0  0  0  0  0  0  0  0
    1.4639    0.3010   -1.7415 H   0  0  0  0  0  0  0  0  0  0  0  0
    2.1714    2.4147   -0.1944 H   0  0  0  0  0  0  0  0  0  0  0  0
    1.4089   -2.8007    0.8194 H   0  0  0  0  0  0  0  0  0  0  0  0
    1.2470   -2.5910   -0.9376 H   0  0  0  0  0  0  0  0  0  0  0  0
    3.2944   -1.6393   -2.2159 H   0  0  0  0  0  0  0  0  0  0  0  0
    4.8197   -1.5342   -1.3483 H   0  0  0  0  0  0  0  0  0  0  0  0
   -0.0406    2.2913   -1.2916 H   0  0  0  0  0  0  0  0  0  0  0  0
    3.4335   -3.3358   -0.4509 H   0  0  0  0  0  0  0  0  0  0  0  0
    3.6968   -2.1429    0.7921 H   0  0  0  0  0  0  0  0  0  0  0  0
    5.1661    0.8156   -2.1182 H   0  0  0  0  0  0  0  0  0  0  0  0
    3.6355    0.7890   -3.0078 H   0  0  0  0  0  0  0  0  0  0  0  0
    3.9413    2.0612   -1.8195 H   0  0  0  0  0  0  0  0  0  0  0  0
    4.0767    1.5374    0.6319 H   0  0  0  0  0  0  0  0  0  0  0  0
    5.2418    0.2992    0.2682 H   0  0  0  0  0  0  0  0  0  0  0  0
    3.8846   -0.1112    1.2587 H   0  0  0  0  0  0  0  0  0  0  0  0
   -2.6580    1.8975   -0.4719 H   0  0  0  0  0  0  0  0  0  0  0  0
   -5.1426   -0.9263   -0.3229 H   0  0  0  0  0  0  0  0  0  0  0  0
    1.2182    4.2576    0.4614 H   0  0  0  0  0  0  0  0  0  0  0  0
   -0.1007    4.4598   -0.7432 H   0  0  0  0  0  0  0  0  0  0  0  0
   -0.3297    4.9550    0.9407 H   0  0  0  0  0  0  0  0  0  0  0  0
   -1.6149   -3.5220    0.3751 H   0  0  0  0  0  0  0  0  0  0  0  0
   -4.1872   -2.3051    0.6469 H   0  0  0  0  0  0  0  0  0  0  0  0
   -6.2585    0.9781    0.6456 H   0  0  0  0  0  0  0  0  0  0  0  0
   -4.9340    0.4972    1.7182 H   0  0  0  0  0  0  0  0  0  0  0  0
   -4.7693    1.9298    0.6898 H   0  0  0  0  0  0  0  0  0  0  0  0
   -4.5887   -0.0427   -2.5680 H   0  0  0  0  0  0  0  0  0  0  0  0
   -6.0582    0.6566   -1.8693 H   0  0  0  0  0  0  0  0  0  0  0  0
   -4.5649    1.6017   -1.9113 H   0  0  0  0  0  0  0  0  0  0  0  0
  1  9  1  0  0  0  0
  1 15  1  0  0  0  0
  2 14  1  0  0  0  0
  2 24  1  0  0  0  0
  3 15  2  0  0  0  0
  4 19  1  0  0  0  0
  4 47  1  0  0  0  0
  5 22  1  0  0  0  0
  5 48  1  0  0  0  0
  6  7  1  0  0  0  0
  6  8  1  0  0  0  0
  6  9  1  0  0  0  0
  6 27  1  0  0  0  0
  7 10  1  0  0  0  0
  7 12  1  0  0  0  0
  7 15  1  0  0  0  0
  8 11  1  0  0  0  0
  8 17  1  0  0  0  0
  8 18  1  0  0  0  0
  9 14  1  0  0  0  0
  9 28  1  0  0  0  0
 10 13  1  0  0  0  0
 10 29  1  0  0  0  0
 10 30  1  0  0  0  0
 11 13  1  0  0  0  0
 11 31  1  0  0  0  0
 11 32  1  0  0  0  0
 12 16  1  0  0  0  0
 12 19  2  0  0  0  0
 13 34  1  0  0  0  0
 13 35  1  0  0  0  0
 14 16  1  0  0  0  0
 14 33  1  0  0  0  0
 16 20  2  0  0  0  0
 17 36  1  0  0  0  0
 17 37  1  0  0  0  0
 17 38  1  0  0  0  0
 18 39  1  0  0  0  0
 18 40  1  0  0  0  0
 18 41  1  0  0  0  0
 19 22  1  0  0  0  0
 20 21  1  0  0  0  0
 20 42  1  0  0  0  0
 21 22  2  0  0  0  0
 21 23  1  0  0  0  0
 23 25  1  0  0  0  0
 23 26  1  0  0  0  0
 23 43  1  0  0  0  0
 24 44  1  0  0  0  0
 24 45  1  0  0  0  0
 24 46  1  0  0  0  0
 25 49  1  0  0  0  0
 25 50  1  0  0  0  0
 25 51  1  0  0  0  0
 26 52  1  0  0  0  0
 26 53  1  0  0  0  0
 26 54  1  0  0  0  0
M  END
> <PUBCHEM_COMPOUND_CID>
46883406

> <PUBCHEM_CONFORMER_RMSD>
0.6

> <PUBCHEM_CONFORMER_DIVERSEORDER>
1
2

> <PUBCHEM_MMFF94_PARTIAL_CHARGES>
20
1 -0.43
12 -0.14
14 0.42
15 0.66
16 -0.14
19 0.08
2 -0.56
20 -0.15
21 -0.14
22 0.08
23 0.14
24 0.28
3 -0.57
4 -0.53
42 0.15
47 0.45
48 0.45
5 -0.53
7 0.2
9 0.28

> <PUBCHEM_EFFECTIVE_ROTOR_COUNT>
3.2

> <PUBCHEM_PHARMACOPHORE_FEATURES>
9
1 2 acceptor
1 3 acceptor
1 4 donor
1 5 donor
3 23 25 26 hydrophobe
3 8 17 18 hydrophobe
6 12 16 19 20 21 22 rings
6 6 7 8 10 11 13 rings
8 1 6 7 9 12 14 15 16 rings

> <PUBCHEM_HEAVY_ATOM_COUNT>
26

> <PUBCHEM_ATOM_DEF_STEREO_COUNT>
4

> <PUBCHEM_ATOM_UDEF_STEREO_COUNT>
0

> <PUBCHEM_BOND_DEF_STEREO_COUNT>
0

> <PUBCHEM_BOND_UDEF_STEREO_COUNT>
0

> <PUBCHEM_ISOTOPIC_ATOM_COUNT>
0

> <PUBCHEM_COMPONENT_COUNT>
1

> <PUBCHEM_CACTVS_TAUTO_COUNT>
34

> <PUBCHEM_CONFORMER_ID>
02CB624E00000001

> <PUBCHEM_MMFF94_ENERGY>
101.743

> <PUBCHEM_FEATURE_SELFOVERLAP>
45.712

> <PUBCHEM_SHAPE_FINGERPRINT>
10498660 4 18408039628272104391
10693767 8 18057865993060077247
10759866 29 17531240609041840965
10863032 1 18412834585680446534
10906281 52 18338527451256307896
10967382 1 18410855451543527983
11578080 2 17130136740200103259
116883 192 18198067980133209126
12236239 1 17603580837934928826
12293681 160 18264509419496347644
12553582 1 18411415086283636001
12788726 201 18267592312249838064
12892183 10 11455895715594098790
13134695 92 17203610406108351712
13140716 1 18266738163487484768
13224815 77 18335132107646233855
13583140 156 15481811558394121987
14022347 108 18408885096694582081
14223421 5 17976820118944819747
14790565 3 18266754480342964313
14955137 171 18264795249511367561
15081414 286 18413113857138668985
15196674 1 18409452504787575031
15210252 30 18259991482767107020
15238133 3 18114167610729600873
15475509 8 17771656514658007237
15664445 248 18271254897462781372
1601671 61 18409167718564814549
16752209 62 18192139417847369413
16945 1 18338249197536256380
18186145 218 18341606032410986501
19591789 44 17908151979499273697
19765921 60 17458913733634385162
19862831 5 18187366523437990119
20600515 1 18270662243167180265
20691752 17 18341328894728999897
20905425 154 17767684958088101335
21069387 34 14836132077950585175
21285901 2 17916598517886287605
21421861 104 18042117661833804058
221357 26 18338787941365429357
23557571 272 18271802364142970216
23558518 356 17903364710187834432
23559900 14 18412829101413086228
2748010 2 17326334827351945579
2838139 119 16589162704545736012
3004659 81 18260267413230844238
3286 77 16702008752009864979
34934 24 18412260670670100918
350125 39 18121505648348919796
394222 165 17313101938892617504
474 4 16733559324300228966
484985 159 15117362739999831372
495365 180 17489010630729852707
5104073 3 18408323310682937026
7164475 11 18194688060151972588
7364860 26 17980764057951956760
7832392 63 18341330089019889103
9709674 26 18123465248863923191

> <PUBCHEM_SHAPE_MULTIPOLES>
505.72
8.42
3.19
1.43
6.63
1.65
-0.19
-0.79
3.09
-0.11
-0.46
-0.8
0.15
-0.03

> <PUBCHEM_SHAPE_SELFOVERLAP>
1108.842

> <PUBCHEM_SHAPE_VOLUME>
275.2

> <PUBCHEM_COORDINATE_TYPE>
2
5
10

$$$$
