155535100
  -OEChem-08012508203D

 56 58  0     1  0  0  0  0  0999 V2000
   -2.4388    1.9142    0.8963 O   0  0  0  0  0  0  0  0  0  0  0  0
    0.8120    2.4024   -0.8625 O   0  0  0  0  0  0  0  0  0  0  0  0
    3.4546    2.0213   -0.8346 O   0  0  0  0  0  0  0  0  0  0  0  0
   -0.6111    0.9189    1.9387 N   0  0  0  0  0  0  0  0  0  0  0  0
   -1.9368   -1.0549   -0.2804 C   0  0  2  0  0  0  0  0  0  0  0  0
   -1.1500    0.2928   -0.3268 C   0  0  2  0  0  0  0  0  0  0  0  0
   -3.5011   -0.8876   -0.2323 C   0  0  0  0  0  0  0  0  0  0  0  0
   -1.5694    1.0623   -1.6150 C   0  0  0  0  0  0  0  0  0  0  0  0
   -3.9400    0.4043   -0.9718 C   0  0  0  0  0  0  0  0  0  0  0  0
   -1.3671   -1.9935    0.7939 C   0  0  0  0  0  0  0  0  0  0  0  0
   -2.9928    0.7706   -2.1057 C   0  0  0  0  0  0  0  0  0  0  0  0
    0.3700    0.0741   -0.2869 C   0  0  0  0  0  0  0  0  0  0  0  0
    0.0797   -2.3484    0.4677 C   0  0  0  0  0  0  0  0  0  0  0  0
   -4.1457   -2.1042   -0.9434 C   0  0  0  0  0  0  0  0  0  0  0  0
   -4.0814   -0.8497    1.1971 C   0  0  0  0  0  0  0  0  0  0  0  0
    0.9290   -1.1552    0.1175 C   0  0  0  0  0  0  0  0  0  0  0  0
   -1.4833    1.1428    0.8869 C   0  0  0  0  0  0  0  0  0  0  0  0
    1.2445    1.1366   -0.5943 C   0  0  0  0  0  0  0  0  0  0  0  0
    2.3264   -1.3074    0.1545 C   0  0  0  0  0  0  0  0  0  0  0  0
    3.1709   -0.2491   -0.1718 C   0  0  0  0  0  0  0  0  0  0  0  0
    2.6295    0.9752   -0.5415 C   0  0  0  0  0  0  0  0  0  0  0  0
    4.6494   -0.4486   -0.1108 C   0  0  0  0  0  0  0  0  0  0  0  0
   -0.7264    1.5889    3.2135 C   0  0  0  0  0  0  0  0  0  0  0  0
    5.1395   -0.7815    1.3106 C   0  0  0  0  0  0  0  0  0  0  0  0
    5.1383   -1.5241   -1.0987 C   0  0  0  0  0  0  0  0  0  0  0  0
   -1.7164   -1.5514   -1.2407 H   0  0  0  0  0  0  0  0  0  0  0  0
   -0.8902    0.8302   -2.4464 H   0  0  0  0  0  0  0  0  0  0  0  0
   -1.5131    2.1476   -1.4703 H   0  0  0  0  0  0  0  0  0  0  0  0
   -4.1037    1.2518   -0.3057 H   0  0  0  0  0  0  0  0  0  0  0  0
   -4.9345    0.2425   -1.4116 H   0  0  0  0  0  0  0  0  0  0  0  0
   -1.9415   -2.9261    0.8361 H   0  0  0  0  0  0  0  0  0  0  0  0
   -1.4341   -1.5502    1.7924 H   0  0  0  0  0  0  0  0  0  0  0  0
   -3.3779    1.6422   -2.6482 H   0  0  0  0  0  0  0  0  0  0  0  0
   -2.9616   -0.0483   -2.8352 H   0  0  0  0  0  0  0  0  0  0  0  0
    0.1011   -3.0416   -0.3828 H   0  0  0  0  0  0  0  0  0  0  0  0
    0.5104   -2.8736    1.3290 H   0  0  0  0  0  0  0  0  0  0  0  0
   -5.2399   -2.0371   -0.9317 H   0  0  0  0  0  0  0  0  0  0  0  0
   -3.8322   -2.1695   -1.9910 H   0  0  0  0  0  0  0  0  0  0  0  0
   -3.8725   -3.0459   -0.4558 H   0  0  0  0  0  0  0  0  0  0  0  0
   -5.1614   -0.6605    1.1713 H   0  0  0  0  0  0  0  0  0  0  0  0
   -3.6339   -0.0735    1.8199 H   0  0  0  0  0  0  0  0  0  0  0  0
   -3.9402   -1.8050    1.7144 H   0  0  0  0  0  0  0  0  0  0  0  0
    2.7402   -2.2701    0.4474 H   0  0  0  0  0  0  0  0  0  0  0  0
    0.0645    0.1679    1.9348 H   0  0  0  0  0  0  0  0  0  0  0  0
    5.1658    0.4759   -0.3969 H   0  0  0  0  0  0  0  0  0  0  0  0
    0.0826    2.6152   -0.2587 H   0  0  0  0  0  0  0  0  0  0  0  0
   -1.2024    2.5652    3.0923 H   0  0  0  0  0  0  0  0  0  0  0  0
   -1.3330    0.9651    3.8746 H   0  0  0  0  0  0  0  0  0  0  0  0
    0.2745    1.7082    3.6344 H   0  0  0  0  0  0  0  0  0  0  0  0
    2.9053    2.7902   -1.0659 H   0  0  0  0  0  0  0  0  0  0  0  0
    4.7568   -1.7456    1.6622 H   0  0  0  0  0  0  0  0  0  0  0  0
    6.2336   -0.8288    1.3379 H   0  0  0  0  0  0  0  0  0  0  0  0
    4.8186   -0.0129    2.0225 H   0  0  0  0  0  0  0  0  0  0  0  0
    4.7561   -2.5189   -0.8461 H   0  0  0  0  0  0  0  0  0  0  0  0
    4.8162   -1.2897   -2.1195 H   0  0  0  0  0  0  0  0  0  0  0  0
    6.2325   -1.5784   -1.0961 H   0  0  0  0  0  0  0  0  0  0  0  0
  1 17  2  0  0  0  0
  2 18  1  0  0  0  0
  2 46  1  0  0  0  0
  3 21  1  0  0  0  0
  3 50  1  0  0  0  0
  4 17  1  0  0  0  0
  4 23  1  0  0  0  0
  4 44  1  0  0  0  0
  5  6  1  0  0  0  0
  5  7  1  0  0  0  0
  5 10  1  0  0  0  0
  5 26  1  0  0  0  0
  6  8  1  0  0  0  0
  6 12  1  0  0  0  0
  6 17  1  0  0  0  0
  7  9  1  0  0  0  0
  7 14  1  0  0  0  0
  7 15  1  0  0  0  0
  8 11  1  0  0  0  0
  8 27  1  0  0  0  0
  8 28  1  0  0  0  0
  9 11  1  0  0  0  0
  9 29  1  0  0  0  0
  9 30  1  0  0  0  0
 10 13  1  0  0  0  0
 10 31  1  0  0  0  0
 10 32  1  0  0  0  0
 11 33  1  0  0  0  0
 11 34  1  0  0  0  0
 12 16  1  0  0  0  0
 12 18  2  0  0  0  0
 13 16  1  0  0  0  0
 13 35  1  0  0  0  0
 13 36  1  0  0  0  0
 14 37  1  0  0  0  0
 14 38  1  0  0  0  0
 14 39  1  0  0  0  0
 15 40  1  0  0  0  0
 15 41  1  0  0  0  0
 15 42  1  0  0  0  0
 16 19  2  0  0  0  0
 18 21  1  0  0  0  0
 19 20  1  0  0  0  0
 19 43  1  0  0  0  0
 20 21  2  0  0  0  0
 20 22  1  0  0  0  0
 22 24  1  0  0  0  0
 22 25  1  0  0  0  0
 22 45  1  0  0  0  0
 23 47  1  0  0  0  0
 23 48  1  0  0  0  0
 23 49  1  0  0  0  0
 24 51  1  0  0  0  0
 24 52  1  0  0  0  0
 24 53  1  0  0  0  0
 25 54  1  0  0  0  0
 25 55  1  0  0  0  0
 25 56  1  0  0  0  0
M  END
> <PUBCHEM_COMPOUND_CID>
155535100

> <PUBCHEM_CONFORMER_RMSD>
0.8

> <PUBCHEM_CONFORMER_DIVERSEORDER>
1
4
2
3

> <PUBCHEM_MMFF94_PARTIAL_CHARGES>
19
1 -0.57
12 -0.14
13 0.14
16 -0.14
17 0.57
18 0.08
19 -0.15
2 -0.53
20 -0.14
21 0.08
22 0.14
23 0.3
3 -0.53
4 -0.73
43 0.15
44 0.37
46 0.45
50 0.45
6 0.2

> <PUBCHEM_EFFECTIVE_ROTOR_COUNT>
4.2

> <PUBCHEM_PHARMACOPHORE_FEATURES>
9
1 1 acceptor
1 2 donor
1 3 donor
1 4 donor
3 22 24 25 hydrophobe
3 7 14 15 hydrophobe
6 12 16 18 19 20 21 rings
6 5 6 10 12 13 16 rings
6 5 6 7 8 9 11 rings

> <PUBCHEM_HEAVY_ATOM_COUNT>
25

> <PUBCHEM_ATOM_DEF_STEREO_COUNT>
2

> <PUBCHEM_ATOM_UDEF_STEREO_COUNT>
0

> <PUBCHEM_BOND_DEF_STEREO_COUNT>
0

> <PUBCHEM_BOND_UDEF_STEREO_COUNT>
0

> <PUBCHEM_ISOTOPIC_ATOM_COUNT>
0

> <PUBCHEM_COMPONENT_COUNT>
1

> <PUBCHEM_CACTVS_TAUTO_COUNT>
-1

> <PUBCHEM_CONFORMER_ID>
094546FC00000001

> <PUBCHEM_MMFF94_ENERGY>
97.6853

> <PUBCHEM_FEATURE_SELFOVERLAP>
45.717

> <PUBCHEM_SHAPE_FINGERPRINT>
10863032 1 18186795872956217295
11315181 36 18413669098464226306
11578080 2 18057295401848360041
12166972 35 18411979174688084728
12236239 1 18131069294834353133
12403259 226 18113893918122822077
12403259 415 18113616798211320532
12403814 3 18040996293338679431
12507557 5 18333725815120624564
12553582 1 18188781535490664414
12592029 89 17894625920471798267
12596599 1 18271541796692374180
12788726 201 17845116071604048233
12916754 54 18334860528084093980
13140716 1 18333735732448056968
13224815 77 18272649073388931690
13288520 33 18336265657106102238
13296909 8 17489588905406057048
13583140 156 16588038913467743476
13944108 23 15298537967875210933
14142880 1 18266743485009934729
14178342 30 18269276759847550018
14289901 80 16773788161627934582
14713325 29 17968097456962816341
14787075 74 17916858153312773024
15163728 17 12902362618439804527
15196674 1 18260545666496442015
15209289 33 18411424994340515362
15238133 3 17775018873060945369
15309172 13 18187934936753303082
15375462 478 17846501426211074668
15420108 30 17334510310622239512
15848702 151 18200881660712019422
16945 1 18266187312593741777
17349148 13 18342458127978908574
17980427 23 18060140938204443928
18186145 218 18408038511369461476
18219364 16 18114473266271701160
18927931 339 16917071023285101100
192875 21 18343018895920144968
19591789 44 18186800322120849342
19862831 5 18409163311817534302
19930381 70 18046625874288185901
200 152 18272366485994716055
20028762 73 18341894151054498703
20775438 99 16832870706351696143
21267235 1 18335148599893610030
21304303 282 17484512344135737969
22182313 1 17969204780661304900
23175994 123 18202842166926531841
23402539 116 17918274229515380302
23419403 2 17914589869341070673
23493267 7 17168131356893453227
23559900 14 18271241733593383504
335352 9 18260261928167003135
350125 39 18260835898974941469
5104073 3 18261393381456172361
9709674 26 18189055459239992974
9981440 41 16668252924957592044

> <PUBCHEM_SHAPE_MULTIPOLES>
491.9
8.79
2.32
1.89
7.4
0.04
-1.13
3.29
1.6
-0.34
-0.16
-0.98
-1.03
-0.28

> <PUBCHEM_SHAPE_SELFOVERLAP>
1051.864

> <PUBCHEM_SHAPE_VOLUME>
270.8

> <PUBCHEM_COORDINATE_TYPE>
2
5
10

$$$$
