11336941
  -OEChem-08012508303D

 55 57  0     1  0  0  0  0  0999 V2000
    1.1142   -0.1884    2.0556 O   0  0  0  0  0  0  0  0  0  0  0  0
    1.9943   -2.1152    1.1337 O   0  0  0  0  0  0  0  0  0  0  0  0
   -0.8498   -2.5265   -0.4673 O   0  0  0  0  0  0  0  0  0  0  0  0
   -3.4925   -2.1436   -0.4571 O   0  0  0  0  0  0  0  0  0  0  0  0
    1.9022    0.9772   -0.4684 C   0  0  2  0  0  0  0  0  0  0  0  0
    1.1170   -0.3610   -0.2941 C   0  0  2  0  0  0  0  0  0  0  0  0
    3.4673    0.8180   -0.4193 C   0  0  0  0  0  0  0  0  0  0  0  0
    1.5173   -1.3200   -1.4550 C   0  0  0  0  0  0  0  0  0  0  0  0
    3.8967   -0.5730   -0.9572 C   0  0  0  0  0  0  0  0  0  0  0  0
    1.3477    2.0709    0.4569 C   0  0  0  0  0  0  0  0  0  0  0  0
    2.9328   -1.1098   -2.0062 C   0  0  0  0  0  0  0  0  0  0  0  0
   -0.4026   -0.1376   -0.2646 C   0  0  0  0  0  0  0  0  0  0  0  0
   -0.1047    2.3721    0.1028 C   0  0  0  0  0  0  0  0  0  0  0  0
    4.0987    1.9097   -1.3195 C   0  0  0  0  0  0  0  0  0  0  0  0
    4.0701    1.0003    0.9895 C   0  0  0  0  0  0  0  0  0  0  0  0
   -0.9573    1.1398   -0.0459 C   0  0  0  0  0  0  0  0  0  0  0  0
    1.4705   -1.0143    1.0308 C   0  0  0  0  0  0  0  0  0  0  0  0
   -1.2802   -1.2342   -0.3907 C   0  0  0  0  0  0  0  0  0  0  0  0
   -2.3543    1.2969   -0.0109 C   0  0  0  0  0  0  0  0  0  0  0  0
   -3.2019    0.2016   -0.1569 C   0  0  0  0  0  0  0  0  0  0  0  0
   -2.6644   -1.0656   -0.3419 C   0  0  0  0  0  0  0  0  0  0  0  0
   -4.6796    0.4091   -0.1037 C   0  0  0  0  0  0  0  0  0  0  0  0
    1.3920   -0.6836    3.3693 C   0  0  0  0  0  0  0  0  0  0  0  0
   -5.1862    1.3201   -1.2372 C   0  0  0  0  0  0  0  0  0  0  0  0
   -5.1475    0.9573    1.2572 C   0  0  0  0  0  0  0  0  0  0  0  0
    1.6657    1.3189   -1.4905 H   0  0  0  0  0  0  0  0  0  0  0  0
    0.8301   -1.1984   -2.3038 H   0  0  0  0  0  0  0  0  0  0  0  0
    1.4377   -2.3739   -1.1634 H   0  0  0  0  0  0  0  0  0  0  0  0
    3.9806   -1.3009   -0.1427 H   0  0  0  0  0  0  0  0  0  0  0  0
    4.9029   -0.5161   -1.3921 H   0  0  0  0  0  0  0  0  0  0  0  0
    1.9101    2.9998    0.2971 H   0  0  0  0  0  0  0  0  0  0  0  0
    1.4577    1.8730    1.5226 H   0  0  0  0  0  0  0  0  0  0  0  0
    3.3094   -2.0579   -2.4081 H   0  0  0  0  0  0  0  0  0  0  0  0
    2.8925   -0.4162   -2.8550 H   0  0  0  0  0  0  0  0  0  0  0  0
   -0.1411    2.9249   -0.8448 H   0  0  0  0  0  0  0  0  0  0  0  0
   -0.5229    3.0262    0.8776 H   0  0  0  0  0  0  0  0  0  0  0  0
    5.1924    1.8356   -1.3255 H   0  0  0  0  0  0  0  0  0  0  0  0
    3.7592    1.8203   -2.3572 H   0  0  0  0  0  0  0  0  0  0  0  0
    3.8429    2.9158   -0.9710 H   0  0  0  0  0  0  0  0  0  0  0  0
    3.8689    1.9961    1.3970 H   0  0  0  0  0  0  0  0  0  0  0  0
    3.6999    0.2607    1.7009 H   0  0  0  0  0  0  0  0  0  0  0  0
    5.1607    0.8862    0.9578 H   0  0  0  0  0  0  0  0  0  0  0  0
   -2.7650    2.2937    0.1365 H   0  0  0  0  0  0  0  0  0  0  0  0
   -5.2181   -0.5330   -0.2469 H   0  0  0  0  0  0  0  0  0  0  0  0
   -1.6180   -3.1199   -0.5292 H   0  0  0  0  0  0  0  0  0  0  0  0
    0.7715   -1.5605    3.5761 H   0  0  0  0  0  0  0  0  0  0  0  0
    1.1419    0.1018    4.0873 H   0  0  0  0  0  0  0  0  0  0  0  0
    2.4530   -0.9290    3.4743 H   0  0  0  0  0  0  0  0  0  0  0  0
   -4.1719   -2.0890    0.2357 H   0  0  0  0  0  0  0  0  0  0  0  0
   -4.7993    2.3410   -1.1482 H   0  0  0  0  0  0  0  0  0  0  0  0
   -6.2801    1.3783   -1.2238 H   0  0  0  0  0  0  0  0  0  0  0  0
   -4.8825    0.9299   -2.2150 H   0  0  0  0  0  0  0  0  0  0  0  0
   -4.8197    0.3032    2.0728 H   0  0  0  0  0  0  0  0  0  0  0  0
   -6.2410    1.0154    1.2924 H   0  0  0  0  0  0  0  0  0  0  0  0
   -4.7560    1.9613    1.4531 H   0  0  0  0  0  0  0  0  0  0  0  0
  1 17  1  0  0  0  0
  1 23  1  0  0  0  0
  2 17  2  0  0  0  0
  3 18  1  0  0  0  0
  3 45  1  0  0  0  0
  4 21  1  0  0  0  0
  4 49  1  0  0  0  0
  5  6  1  0  0  0  0
  5  7  1  0  0  0  0
  5 10  1  0  0  0  0
  5 26  1  0  0  0  0
  6  8  1  0  0  0  0
  6 12  1  0  0  0  0
  6 17  1  0  0  0  0
  7  9  1  0  0  0  0
  7 14  1  0  0  0  0
  7 15  1  0  0  0  0
  8 11  1  0  0  0  0
  8 27  1  0  0  0  0
  8 28  1  0  0  0  0
  9 11  1  0  0  0  0
  9 29  1  0  0  0  0
  9 30  1  0  0  0  0
 10 13  1  0  0  0  0
 10 31  1  0  0  0  0
 10 32  1  0  0  0  0
 11 33  1  0  0  0  0
 11 34  1  0  0  0  0
 12 16  1  0  0  0  0
 12 18  2  0  0  0  0
 13 16  1  0  0  0  0
 13 35  1  0  0  0  0
 13 36  1  0  0  0  0
 14 37  1  0  0  0  0
 14 38  1  0  0  0  0
 14 39  1  0  0  0  0
 15 40  1  0  0  0  0
 15 41  1  0  0  0  0
 15 42  1  0  0  0  0
 16 19  2  0  0  0  0
 18 21  1  0  0  0  0
 19 20  1  0  0  0  0
 19 43  1  0  0  0  0
 20 21  2  0  0  0  0
 20 22  1  0  0  0  0
 22 24  1  0  0  0  0
 22 25  1  0  0  0  0
 22 44  1  0  0  0  0
 23 46  1  0  0  0  0
 23 47  1  0  0  0  0
 23 48  1  0  0  0  0
 24 50  1  0  0  0  0
 24 51  1  0  0  0  0
 24 52  1  0  0  0  0
 25 53  1  0  0  0  0
 25 54  1  0  0  0  0
 25 55  1  0  0  0  0
M  END
> <PUBCHEM_COMPOUND_CID>
11336941

> <PUBCHEM_CONFORMER_RMSD>
0.8

> <PUBCHEM_CONFORMER_DIVERSEORDER>
1
2

> <PUBCHEM_MMFF94_PARTIAL_CHARGES>
18
1 -0.43
12 -0.14
13 0.14
16 -0.14
17 0.66
18 0.08
19 -0.15
2 -0.57
20 -0.14
21 0.08
22 0.14
23 0.28
3 -0.53
4 -0.53
43 0.15
45 0.45
49 0.45
6 0.2

> <PUBCHEM_EFFECTIVE_ROTOR_COUNT>
4.2

> <PUBCHEM_PHARMACOPHORE_FEATURES>
8
1 2 acceptor
1 3 donor
1 4 donor
3 22 24 25 hydrophobe
3 7 14 15 hydrophobe
6 12 16 18 19 20 21 rings
6 5 6 10 12 13 16 rings
6 5 6 7 8 9 11 rings

> <PUBCHEM_HEAVY_ATOM_COUNT>
25

> <PUBCHEM_ATOM_DEF_STEREO_COUNT>
2

> <PUBCHEM_ATOM_UDEF_STEREO_COUNT>
0

> <PUBCHEM_BOND_DEF_STEREO_COUNT>
0

> <PUBCHEM_BOND_UDEF_STEREO_COUNT>
0

> <PUBCHEM_ISOTOPIC_ATOM_COUNT>
0

> <PUBCHEM_COMPONENT_COUNT>
1

> <PUBCHEM_CACTVS_TAUTO_COUNT>
53

> <PUBCHEM_CONFORMER_ID>
00ACFCED00000001

> <PUBCHEM_MMFF94_ENERGY>
93.8337

> <PUBCHEM_FEATURE_SELFOVERLAP>
40.641

> <PUBCHEM_SHAPE_FINGERPRINT>
10064457 181 16950568821498144211
10498660 4 18411698785979267421
10863032 1 18202009845330141852
10906281 52 18118420651135684204
10948715 1 18041282170361449716
11578080 2 16772103876568794707
12236239 1 17821729416484163854
12553582 1 18411696548491450305
12644460 14 18260551082877535209
12788726 201 18129380410931310513
13140716 1 18196086866032867024
13224815 77 18186524323538261613
13583140 156 17458060465841701549
14289901 80 16153717479600461093
14713325 29 16019191454089471972
14787075 74 17677624218581431545
14790565 3 18198359372496030217
15196674 1 18342181102039456941
1601671 61 18343867727154569229
16752209 62 18195517104920515069
16945 1 17916600876297897620
17349148 13 18130205126609221269
18186145 218 18341613694569397669
19784866 9 17676481744137467008
20691752 17 17531522204056180933
21421861 104 17823124636383637464
23175994 123 16200160863220413674
23402539 116 18342170098702509766
23559900 14 18272658926550493438
335352 9 18342463612187740732
34934 24 18409443704494303669
4340502 62 16950289498801195593
474 4 17822301244214464956
495365 180 16988266642897938971
5104073 3 18341333378616808826
59755656 215 18342179926030742892
59755656 520 17023191578067654370
633830 44 17821732779501540182
9709674 26 18199755897822208615
9981440 41 17758123979415993212
9999458 23 17458060478446989788

> <PUBCHEM_SHAPE_MULTIPOLES>
491.01
8.82
2.3
1.88
8.25
0.15
1.54
-2.78
-1.84
-0.23
-0.27
-1.46
0.51
-0.2

> <PUBCHEM_SHAPE_SELFOVERLAP>
1050.841

> <PUBCHEM_SHAPE_VOLUME>
271.1

> <PUBCHEM_COORDINATE_TYPE>
2
5
10

$$$$
