9974918
  -OEChem-08012508173D

 55 57  0     1  0  0  0  0  0999 V2000
    1.2293   -0.1870    2.2269 O   0  0  0  0  0  0  0  0  0  0  0  0
    2.0016   -2.1548    1.3738 O   0  0  0  0  0  0  0  0  0  0  0  0
   -0.7938   -2.3949   -0.3625 O   0  0  0  0  0  0  0  0  0  0  0  0
   -3.4014   -1.8300   -0.4689 O   0  0  0  0  0  0  0  0  0  0  0  0
    2.1936    0.9094   -0.2871 C   0  0  2  0  0  0  0  0  0  0  0  0
    1.3104   -0.3686   -0.1308 C   0  0  2  0  0  0  0  0  0  0  0  0
    3.7404    0.6430   -0.1698 C   0  0  0  0  0  0  0  0  0  0  0  0
    1.6907   -1.3696   -1.2626 C   0  0  0  0  0  0  0  0  0  0  0  0
    4.0937   -0.7820   -0.6729 C   0  0  0  0  0  0  0  0  0  0  0  0
    1.6789    2.0521    0.6013 C   0  0  0  0  0  0  0  0  0  0  0  0
    3.1392   -1.2659   -1.7556 C   0  0  0  0  0  0  0  0  0  0  0  0
   -0.1898   -0.0401   -0.1685 C   0  0  0  0  0  0  0  0  0  0  0  0
    0.2670    2.4480    0.1824 C   0  0  0  0  0  0  0  0  0  0  0  0
    4.4833    1.6753   -1.0549 C   0  0  0  0  0  0  0  0  0  0  0  0
    4.2954    0.8033    1.2611 C   0  0  0  0  0  0  0  0  0  0  0  0
   -0.6626    1.2756    0.0118 C   0  0  0  0  0  0  0  0  0  0  0  0
    1.5621   -1.0256    1.2152 C   0  0  0  0  0  0  0  0  0  0  0  0
   -1.1357   -1.0751   -0.3191 C   0  0  0  0  0  0  0  0  0  0  0  0
   -2.0455    1.5296   -0.0143 C   0  0  0  0  0  0  0  0  0  0  0  0
   -2.9606    0.4936   -0.1836 C   0  0  0  0  0  0  0  0  0  0  0  0
   -2.5057   -0.8103   -0.3311 C   0  0  0  0  0  0  0  0  0  0  0  0
   -4.4212    0.8036   -0.1956 C   0  0  0  0  0  0  0  0  0  0  0  0
   -4.8154    1.7311   -1.3599 C   0  0  0  0  0  0  0  0  0  0  0  0
   -4.9059    1.4025    1.1379 C   0  0  0  0  0  0  0  0  0  0  0  0
   -3.8482   -2.4634    0.7269 C   0  0  0  0  0  0  0  0  0  0  0  0
    2.0243    1.2520   -1.3221 H   0  0  0  0  0  0  0  0  0  0  0  0
    1.0488   -1.2153   -2.1410 H   0  0  0  0  0  0  0  0  0  0  0  0
    1.5277   -2.4105   -0.9593 H   0  0  0  0  0  0  0  0  0  0  0  0
    4.0916   -1.5020    0.1529 H   0  0  0  0  0  0  0  0  0  0  0  0
    5.1188   -0.8016   -1.0649 H   0  0  0  0  0  0  0  0  0  0  0  0
    2.3120    2.9374    0.4607 H   0  0  0  0  0  0  0  0  0  0  0  0
    1.7256    1.8528    1.6718 H   0  0  0  0  0  0  0  0  0  0  0  0
    3.4650   -2.2435   -2.1304 H   0  0  0  0  0  0  0  0  0  0  0  0
    3.1825   -0.5833   -2.6133 H   0  0  0  0  0  0  0  0  0  0  0  0
    0.3088    2.9882   -0.7722 H   0  0  0  0  0  0  0  0  0  0  0  0
   -0.1365    3.1406    0.9312 H   0  0  0  0  0  0  0  0  0  0  0  0
    4.1831    1.5936   -2.1052 H   0  0  0  0  0  0  0  0  0  0  0  0
    4.2828    2.7017   -0.7302 H   0  0  0  0  0  0  0  0  0  0  0  0
    5.5686    1.5263   -1.0122 H   0  0  0  0  0  0  0  0  0  0  0  0
    4.1611    1.8215    1.6408 H   0  0  0  0  0  0  0  0  0  0  0  0
    3.8307    0.1144    1.9697 H   0  0  0  0  0  0  0  0  0  0  0  0
    5.3728    0.5976    1.2810 H   0  0  0  0  0  0  0  0  0  0  0  0
   -2.3915    2.5543    0.1042 H   0  0  0  0  0  0  0  0  0  0  0  0
    1.3855   -0.5933    3.1059 H   0  0  0  0  0  0  0  0  0  0  0  0
   -5.0055   -0.1113   -0.3459 H   0  0  0  0  0  0  0  0  0  0  0  0
   -1.5773   -2.9287   -0.5772 H   0  0  0  0  0  0  0  0  0  0  0  0
   -4.3640    2.7245   -1.2654 H   0  0  0  0  0  0  0  0  0  0  0  0
   -5.9024    1.8629   -1.3947 H   0  0  0  0  0  0  0  0  0  0  0  0
   -4.4976    1.3076   -2.3192 H   0  0  0  0  0  0  0  0  0  0  0  0
   -4.6492    0.7469    1.9772 H   0  0  0  0  0  0  0  0  0  0  0  0
   -5.9942    1.5266    1.1292 H   0  0  0  0  0  0  0  0  0  0  0  0
   -4.4619    2.3848    1.3322 H   0  0  0  0  0  0  0  0  0  0  0  0
   -4.3576   -1.7509    1.3824 H   0  0  0  0  0  0  0  0  0  0  0  0
   -3.0116   -2.9234    1.2622 H   0  0  0  0  0  0  0  0  0  0  0  0
   -4.5574   -3.2490    0.4518 H   0  0  0  0  0  0  0  0  0  0  0  0
  1 17  1  0  0  0  0
  1 44  1  0  0  0  0
  2 17  2  0  0  0  0
  3 18  1  0  0  0  0
  3 46  1  0  0  0  0
  4 21  1  0  0  0  0
  4 25  1  0  0  0  0
  5  6  1  0  0  0  0
  5  7  1  0  0  0  0
  5 10  1  0  0  0  0
  5 26  1  0  0  0  0
  6  8  1  0  0  0  0
  6 12  1  0  0  0  0
  6 17  1  0  0  0  0
  7  9  1  0  0  0  0
  7 14  1  0  0  0  0
  7 15  1  0  0  0  0
  8 11  1  0  0  0  0
  8 27  1  0  0  0  0
  8 28  1  0  0  0  0
  9 11  1  0  0  0  0
  9 29  1  0  0  0  0
  9 30  1  0  0  0  0
 10 13  1  0  0  0  0
 10 31  1  0  0  0  0
 10 32  1  0  0  0  0
 11 33  1  0  0  0  0
 11 34  1  0  0  0  0
 12 16  1  0  0  0  0
 12 18  2  0  0  0  0
 13 16  1  0  0  0  0
 13 35  1  0  0  0  0
 13 36  1  0  0  0  0
 14 37  1  0  0  0  0
 14 38  1  0  0  0  0
 14 39  1  0  0  0  0
 15 40  1  0  0  0  0
 15 41  1  0  0  0  0
 15 42  1  0  0  0  0
 16 19  2  0  0  0  0
 18 21  1  0  0  0  0
 19 20  1  0  0  0  0
 19 43  1  0  0  0  0
 20 21  2  0  0  0  0
 20 22  1  0  0  0  0
 22 23  1  0  0  0  0
 22 24  1  0  0  0  0
 22 45  1  0  0  0  0
 23 47  1  0  0  0  0
 23 48  1  0  0  0  0
 23 49  1  0  0  0  0
 24 50  1  0  0  0  0
 24 51  1  0  0  0  0
 24 52  1  0  0  0  0
 25 53  1  0  0  0  0
 25 54  1  0  0  0  0
 25 55  1  0  0  0  0
M  END
> <PUBCHEM_COMPOUND_CID>
9974918

> <PUBCHEM_CONFORMER_RMSD>
0.8

> <PUBCHEM_CONFORMER_DIVERSEORDER>
1

> <PUBCHEM_MMFF94_PARTIAL_CHARGES>
18
1 -0.65
12 -0.14
13 0.14
16 -0.14
17 0.66
18 0.08
19 -0.15
2 -0.57
20 -0.14
21 0.08
22 0.14
25 0.28
3 -0.53
4 -0.36
43 0.15
44 0.5
46 0.45
6 0.2

> <PUBCHEM_EFFECTIVE_ROTOR_COUNT>
4.2

> <PUBCHEM_PHARMACOPHORE_FEATURES>
10
1 1 acceptor
1 2 acceptor
1 3 donor
1 4 acceptor
3 1 2 17 anion
3 22 23 24 hydrophobe
3 7 14 15 hydrophobe
6 12 16 18 19 20 21 rings
6 5 6 10 12 13 16 rings
6 5 6 7 8 9 11 rings

> <PUBCHEM_HEAVY_ATOM_COUNT>
25

> <PUBCHEM_ATOM_DEF_STEREO_COUNT>
2

> <PUBCHEM_ATOM_UDEF_STEREO_COUNT>
0

> <PUBCHEM_BOND_DEF_STEREO_COUNT>
0

> <PUBCHEM_BOND_UDEF_STEREO_COUNT>
0

> <PUBCHEM_ISOTOPIC_ATOM_COUNT>
0

> <PUBCHEM_COMPONENT_COUNT>
1

> <PUBCHEM_CACTVS_TAUTO_COUNT>
17

> <PUBCHEM_CONFORMER_ID>
0098348600000001

> <PUBCHEM_MMFF94_ENERGY>
101.779

> <PUBCHEM_FEATURE_SELFOVERLAP>
50.838

> <PUBCHEM_SHAPE_FINGERPRINT>
10498660 4 18410572873008246229
10863032 1 18273502268906006860
10906281 52 18264222468652729064
10948715 1 18263083382937162460
10967382 1 18341615854299631069
11132069 177 18411978061532062005
11578080 2 16629106866048596250
12236239 1 17676489410944006678
12293681 4 17829615307015711978
12553582 1 18339640023784315097
13134695 92 16630242528579626072
13140716 1 18340767053030270883
13224815 77 18114183063826467041
13583140 156 17313103034621201305
14223421 5 18266457801191847803
14787075 74 18118130400986133140
14790565 3 18336835289459391460
15196674 1 18412830213292742124
15375358 24 18273210893713343293
15788980 27 17530963570624006669
1601671 61 18343022198591934916
16752209 62 18268977838903950895
16945 1 18129386076071580284
17349148 13 18059280007983577149
18186145 218 18411980226696576805
19591789 44 18337955713319439123
19784866 9 17967808328037645736
19862831 5 18411703166445119052
200 152 16917347022136304645
20691752 17 17603581958462535157
21033648 29 17346589790473196835
21267235 1 18341343188575209614
21421861 104 17896592891197556944
22182313 1 18200888343216914847
2334 1 18339636871441609837
23402539 116 18412256255659868582
23557571 272 18341343287122294982
23559900 14 18342745070517598326
2748010 2 18340763840716175021
2838139 119 17169289220100440436
335352 9 18341898441773196004
34934 24 18410568483309186925
350125 39 18339087115807154261
4340502 62 16878232982736891873
474 4 17822301227161196244
495365 180 17131818864003989234
5104073 3 18412262856724026626
59755656 215 18341896230608791558
633830 44 18040719194849273542
9709674 26 18342741866039426703

> <PUBCHEM_SHAPE_MULTIPOLES>
491.01
9.37
2.6
1.39
4.46
0.43
0.25
-2.25
-1.03
1
0.07
-0.69
0.2
0.52

> <PUBCHEM_SHAPE_SELFOVERLAP>
1051.066

> <PUBCHEM_SHAPE_VOLUME>
270.7

> <PUBCHEM_COORDINATE_TYPE>
2
5
10

$$$$
