71712255
  -OEChem-08012508303D

 51 53  0     1  0  0  0  0  0999 V2000
    2.0309    2.0180   -1.6513 O   0  0  0  0  0  0  0  0  0  0  0  0
   -0.7496    2.5723    0.0061 O   0  0  0  0  0  0  0  0  0  0  0  0
   -3.3875    2.1818    0.1448 O   0  0  0  0  0  0  0  0  0  0  0  0
    2.0257   -0.9054    0.2394 C   0  0  2  0  0  0  0  0  0  0  0  0
    1.2242    0.4064   -0.0336 C   0  0  2  0  0  0  0  0  0  0  0  0
    3.5863   -0.7469    0.1093 C   0  0  0  0  0  0  0  0  0  0  0  0
    1.6652    1.4771    1.0087 C   0  0  0  0  0  0  0  0  0  0  0  0
    4.0274    0.6921    0.4881 C   0  0  0  0  0  0  0  0  0  0  0  0
    1.4415   -2.0873   -0.5490 C   0  0  0  0  0  0  0  0  0  0  0  0
    3.1040    1.3273    1.5181 C   0  0  0  0  0  0  0  0  0  0  0  0
   -0.2936    0.1763    0.0227 C   0  0  0  0  0  0  0  0  0  0  0  0
    0.0072   -2.3566   -0.1064 C   0  0  0  0  0  0  0  0  0  0  0  0
    4.2624   -1.7416    1.0863 C   0  0  0  0  0  0  0  0  0  0  0  0
    4.1316   -1.0665   -1.2984 C   0  0  0  0  0  0  0  0  0  0  0  0
   -0.8475   -1.1181   -0.0450 C   0  0  0  0  0  0  0  0  0  0  0  0
    1.5179    0.9261   -1.4302 C   0  0  0  0  0  0  0  0  0  0  0  0
   -1.1732    1.2773    0.0763 C   0  0  0  0  0  0  0  0  0  0  0  0
   -2.2436   -1.2824   -0.0057 C   0  0  0  0  0  0  0  0  0  0  0  0
   -3.0924   -0.1806    0.0664 C   0  0  0  0  0  0  0  0  0  0  0  0
   -2.5569    1.1003    0.1025 C   0  0  0  0  0  0  0  0  0  0  0  0
   -4.5694   -0.3973    0.0968 C   0  0  0  0  0  0  0  0  0  0  0  0
   -5.0212   -1.1924    1.3358 C   0  0  0  0  0  0  0  0  0  0  0  0
   -5.0898   -1.0799   -1.1818 C   0  0  0  0  0  0  0  0  0  0  0  0
    1.8347   -1.1457    1.2991 H   0  0  0  0  0  0  0  0  0  0  0  0
    1.0143    1.4381    1.8934 H   0  0  0  0  0  0  0  0  0  0  0  0
    1.5780    2.5000    0.6270 H   0  0  0  0  0  0  0  0  0  0  0  0
    4.0730    1.3353   -0.3976 H   0  0  0  0  0  0  0  0  0  0  0  0
    5.0510    0.6815    0.8844 H   0  0  0  0  0  0  0  0  0  0  0  0
    2.0281   -2.9979   -0.3840 H   0  0  0  0  0  0  0  0  0  0  0  0
    1.4632   -1.8897   -1.6266 H   0  0  0  0  0  0  0  0  0  0  0  0
    3.4906    2.3114    1.8086 H   0  0  0  0  0  0  0  0  0  0  0  0
    3.1037    0.7211    2.4324 H   0  0  0  0  0  0  0  0  0  0  0  0
    0.0148   -2.8137    0.8912 H   0  0  0  0  0  0  0  0  0  0  0  0
   -0.4381   -3.0837   -0.7964 H   0  0  0  0  0  0  0  0  0  0  0  0
    3.9932   -2.7776    0.8549 H   0  0  0  0  0  0  0  0  0  0  0  0
    3.9710   -1.5460    2.1240 H   0  0  0  0  0  0  0  0  0  0  0  0
    5.3549   -1.6688    1.0334 H   0  0  0  0  0  0  0  0  0  0  0  0
    3.9595   -2.1119   -1.5750 H   0  0  0  0  0  0  0  0  0  0  0  0
    5.2147   -0.8997   -1.3415 H   0  0  0  0  0  0  0  0  0  0  0  0
    3.6792   -0.4378   -2.0696 H   0  0  0  0  0  0  0  0  0  0  0  0
    1.2349    0.2690   -2.2706 H   0  0  0  0  0  0  0  0  0  0  0  0
   -2.6528   -2.2900   -0.0362 H   0  0  0  0  0  0  0  0  0  0  0  0
   -5.0899    0.5665    0.1549 H   0  0  0  0  0  0  0  0  0  0  0  0
   -0.0335    2.6302   -0.6463 H   0  0  0  0  0  0  0  0  0  0  0  0
   -2.8421    2.9873    0.1613 H   0  0  0  0  0  0  0  0  0  0  0  0
   -6.1144   -1.2518    1.3759 H   0  0  0  0  0  0  0  0  0  0  0  0
   -4.6773   -0.7071    2.2560 H   0  0  0  0  0  0  0  0  0  0  0  0
   -4.6334   -2.2167    1.3312 H   0  0  0  0  0  0  0  0  0  0  0  0
   -4.7041   -2.0993   -1.2899 H   0  0  0  0  0  0  0  0  0  0  0  0
   -4.7957   -0.5133   -2.0723 H   0  0  0  0  0  0  0  0  0  0  0  0
   -6.1836   -1.1387   -1.1673 H   0  0  0  0  0  0  0  0  0  0  0  0
  1 16  2  0  0  0  0
  2 17  1  0  0  0  0
  2 44  1  0  0  0  0
  3 20  1  0  0  0  0
  3 45  1  0  0  0  0
  4  5  1  0  0  0  0
  4  6  1  0  0  0  0
  4  9  1  0  0  0  0
  4 24  1  0  0  0  0
  5  7  1  0  0  0  0
  5 11  1  0  0  0  0
  5 16  1  0  0  0  0
  6  8  1  0  0  0  0
  6 13  1  0  0  0  0
  6 14  1  0  0  0  0
  7 10  1  0  0  0  0
  7 25  1  0  0  0  0
  7 26  1  0  0  0  0
  8 10  1  0  0  0  0
  8 27  1  0  0  0  0
  8 28  1  0  0  0  0
  9 12  1  0  0  0  0
  9 29  1  0  0  0  0
  9 30  1  0  0  0  0
 10 31  1  0  0  0  0
 10 32  1  0  0  0  0
 11 15  1  0  0  0  0
 11 17  2  0  0  0  0
 12 15  1  0  0  0  0
 12 33  1  0  0  0  0
 12 34  1  0  0  0  0
 13 35  1  0  0  0  0
 13 36  1  0  0  0  0
 13 37  1  0  0  0  0
 14 38  1  0  0  0  0
 14 39  1  0  0  0  0
 14 40  1  0  0  0  0
 15 18  2  0  0  0  0
 16 41  1  0  0  0  0
 17 20  1  0  0  0  0
 18 19  1  0  0  0  0
 18 42  1  0  0  0  0
 19 20  2  0  0  0  0
 19 21  1  0  0  0  0
 21 22  1  0  0  0  0
 21 23  1  0  0  0  0
 21 43  1  0  0  0  0
 22 46  1  0  0  0  0
 22 47  1  0  0  0  0
 22 48  1  0  0  0  0
 23 49  1  0  0  0  0
 23 50  1  0  0  0  0
 23 51  1  0  0  0  0
M  END
> <PUBCHEM_COMPOUND_CID>
71712255

> <PUBCHEM_CONFORMER_RMSD>
0.6

> <PUBCHEM_CONFORMER_DIVERSEORDER>
1
4
2
3

> <PUBCHEM_MMFF94_PARTIAL_CHARGES>
17
1 -0.57
11 -0.14
12 0.14
15 -0.14
16 0.45
17 0.08
18 -0.15
19 -0.14
2 -0.53
20 0.08
21 0.14
3 -0.53
41 0.06
42 0.15
44 0.45
45 0.45
5 0.2

> <PUBCHEM_EFFECTIVE_ROTOR_COUNT>
3.2

> <PUBCHEM_PHARMACOPHORE_FEATURES>
8
1 1 acceptor
1 2 donor
1 3 donor
3 21 22 23 hydrophobe
3 6 13 14 hydrophobe
6 11 15 17 18 19 20 rings
6 4 5 6 7 8 10 rings
6 4 5 9 11 12 15 rings

> <PUBCHEM_HEAVY_ATOM_COUNT>
23

> <PUBCHEM_ATOM_DEF_STEREO_COUNT>
2

> <PUBCHEM_ATOM_UDEF_STEREO_COUNT>
0

> <PUBCHEM_BOND_DEF_STEREO_COUNT>
0

> <PUBCHEM_BOND_UDEF_STEREO_COUNT>
0

> <PUBCHEM_ISOTOPIC_ATOM_COUNT>
0

> <PUBCHEM_COMPONENT_COUNT>
1

> <PUBCHEM_CACTVS_TAUTO_COUNT>
110

> <PUBCHEM_CONFORMER_ID>
04463DFF00000001

> <PUBCHEM_MMFF94_ENERGY>
83.4057

> <PUBCHEM_FEATURE_SELFOVERLAP>
40.642

> <PUBCHEM_SHAPE_FINGERPRINT>
10062212 137 18337106774663327291
10366900 7 18409455773373667010
10967382 1 18340764926894572834
11578080 2 17678149686646060876
12011746 2 18412545427297218334
12236239 1 17603865619967976544
12403259 226 18342450396705479568
12403259 415 18342737412016000209
12403260 363 18341885290535739027
12507560 40 18343857814702190696
12553582 1 18339934830566106093
12633257 1 18127408947647960048
13140716 1 18195532485234819035
13224815 77 18411141333557539553
13675066 3 18409445920976795323
13862211 1 18411975862757077023
14178342 30 18192994816002133400
14223421 5 18269552732696860772
14787075 74 18130780213285691699
14866123 147 16476019277076346070
15196674 1 18412542076658224952
15536298 74 18273212010420625378
15788980 27 18411417324130200975
15848702 151 17417818313640786719
16945 1 18198900302072120098
17349148 13 18335417972021459759
17804303 29 18340769239326555106
1813 80 17385997344075180252
19591789 44 18341892952726201130
200 152 18272079509877003719
20028762 73 17846205691954342591
20261772 1 18343303699438708603
20510252 161 18272932704624160097
20691752 17 17604435097912887777
20905425 154 18052822451159789654
21033648 29 18271792523708471816
21267235 1 18410864247731937426
22182313 1 18338500985145337188
23184049 59 18412541045897936723
23402539 116 18343011190970251871
23557571 272 17917438583640741887
23559900 14 18333732446149189938
2748010 2 18412259562257211052
2838139 119 13397477223107674762
2871803 45 18411411804807153207
3286 77 18131628989065381561
335352 9 18124594189100806636
350125 39 18411143519385020609
465052 167 18041006154214793867
474 4 16951987252324174548
5104073 3 18340202999016781336
59755656 215 18338516331575019935
69090 78 18060413655447192143
9709674 26 18341897363763193727
9981440 41 17250340964902927624

> <PUBCHEM_SHAPE_MULTIPOLES>
455.72
9.35
2.43
1.24
6.41
0.34
0.12
-2.69
-1.04
-0.37
0.06
-0.57
0.13
0.12

> <PUBCHEM_SHAPE_SELFOVERLAP>
975.845

> <PUBCHEM_SHAPE_VOLUME>
251.3

> <PUBCHEM_COORDINATE_TYPE>
2
5
10

$$$$
