155511438
  -OEChem-08012508303D

 65 68  0     1  0  0  0  0  0999 V2000
   -1.3661   -1.2777   -1.4697 O   0  0  0  0  0  0  0  0  0  0  0  0
    0.8010   -0.1448    2.0888 O   0  0  0  0  0  0  0  0  0  0  0  0
    3.0108    1.3428    1.9365 O   0  0  0  0  0  0  0  0  0  0  0  0
   -0.7273   -1.9948    0.6506 N   0  0  0  0  0  0  0  0  0  0  0  0
    2.8310   -3.5273   -1.8132 N   0  0  0  0  0  0  0  0  0  0  0  0
   -2.7529    0.9816   -0.3396 C   0  0  2  0  0  0  0  0  0  0  0  0
   -1.5653    0.2493    0.3777 C   0  0  2  0  0  0  0  0  0  0  0  0
   -4.1471    0.2691   -0.2375 C   0  0  0  0  0  0  0  0  0  0  0  0
   -1.9855   -0.0293    1.8455 C   0  0  0  0  0  0  0  0  0  0  0  0
   -4.4462   -0.0348    1.2507 C   0  0  0  0  0  0  0  0  0  0  0  0
   -2.3452    1.3955   -1.7633 C   0  0  0  0  0  0  0  0  0  0  0  0
   -3.3196   -0.7659    1.9663 C   0  0  0  0  0  0  0  0  0  0  0  0
   -0.2823    1.0953    0.2899 C   0  0  0  0  0  0  0  0  0  0  0  0
   -1.2015    2.4040   -1.7098 C   0  0  0  0  0  0  0  0  0  0  0  0
   -4.2501   -1.0211   -1.0733 C   0  0  0  0  0  0  0  0  0  0  0  0
   -5.2691    1.2147   -0.7353 C   0  0  0  0  0  0  0  0  0  0  0  0
   -0.1169    2.0679   -0.7194 C   0  0  0  0  0  0  0  0  0  0  0  0
   -1.2222   -1.0824   -0.2657 C   0  0  0  0  0  0  0  0  0  0  0  0
    0.7962    0.8625    1.1673 C   0  0  0  0  0  0  0  0  0  0  0  0
    1.0801    2.8039   -0.7939 C   0  0  0  0  0  0  0  0  0  0  0  0
    2.1224    2.5693    0.0981 C   0  0  0  0  0  0  0  0  0  0  0  0
    1.9816    1.5948    1.0764 C   0  0  0  0  0  0  0  0  0  0  0  0
    3.3787    3.3669   -0.0182 C   0  0  0  0  0  0  0  0  0  0  0  0
   -0.3079   -3.3284    0.2860 C   0  0  0  0  0  0  0  0  0  0  0  0
    3.1417    4.8721    0.2045 C   0  0  0  0  0  0  0  0  0  0  0  0
    4.0947    3.1428   -1.3631 C   0  0  0  0  0  0  0  0  0  0  0  0
    1.1459   -3.3781   -0.0862 C   0  0  0  0  0  0  0  0  0  0  0  0
    2.1374   -3.3242    0.8871 C   0  0  0  0  0  0  0  0  0  0  0  0
    1.5414   -3.4789   -1.4102 C   0  0  0  0  0  0  0  0  0  0  0  0
    3.4755   -3.3723    0.5119 C   0  0  0  0  0  0  0  0  0  0  0  0
    3.7668   -3.4725   -0.8390 C   0  0  0  0  0  0  0  0  0  0  0  0
   -2.8890    1.9297    0.2096 H   0  0  0  0  0  0  0  0  0  0  0  0
   -2.1245    0.9538    2.3241 H   0  0  0  0  0  0  0  0  0  0  0  0
   -1.2964   -0.5178    2.5305 H   0  0  0  0  0  0  0  0  0  0  0  0
   -5.3686   -0.6227    1.3411 H   0  0  0  0  0  0  0  0  0  0  0  0
   -4.6335    0.9076    1.7837 H   0  0  0  0  0  0  0  0  0  0  0  0
   -3.1769    1.8886   -2.2776 H   0  0  0  0  0  0  0  0  0  0  0  0
   -2.0756    0.5607   -2.4098 H   0  0  0  0  0  0  0  0  0  0  0  0
   -3.2363   -1.7924    1.5953 H   0  0  0  0  0  0  0  0  0  0  0  0
   -3.5805   -0.8514    3.0286 H   0  0  0  0  0  0  0  0  0  0  0  0
   -1.6081    3.3868   -1.4370 H   0  0  0  0  0  0  0  0  0  0  0  0
   -0.7719    2.4982   -2.7148 H   0  0  0  0  0  0  0  0  0  0  0  0
   -3.9630   -0.8555   -2.1162 H   0  0  0  0  0  0  0  0  0  0  0  0
   -5.2854   -1.3850   -1.0863 H   0  0  0  0  0  0  0  0  0  0  0  0
   -3.6560   -1.8429   -0.6700 H   0  0  0  0  0  0  0  0  0  0  0  0
   -5.2284    1.3647   -1.8188 H   0  0  0  0  0  0  0  0  0  0  0  0
   -5.2052    2.1971   -0.2544 H   0  0  0  0  0  0  0  0  0  0  0  0
   -6.2598    0.8026   -0.5089 H   0  0  0  0  0  0  0  0  0  0  0  0
    1.1791    3.5640   -1.5662 H   0  0  0  0  0  0  0  0  0  0  0  0
   -0.4322   -1.7207    1.5752 H   0  0  0  0  0  0  0  0  0  0  0  0
    4.0924    3.0596    0.7560 H   0  0  0  0  0  0  0  0  0  0  0  0
   -0.4970   -3.9828    1.1443 H   0  0  0  0  0  0  0  0  0  0  0  0
   -0.9326   -3.6885   -0.5397 H   0  0  0  0  0  0  0  0  0  0  0  0
    1.7050   -0.4849    2.1962 H   0  0  0  0  0  0  0  0  0  0  0  0
    2.6559    0.9588    2.7556 H   0  0  0  0  0  0  0  0  0  0  0  0
    2.5120    5.3095   -0.5777 H   0  0  0  0  0  0  0  0  0  0  0  0
    2.6523    5.0503    1.1685 H   0  0  0  0  0  0  0  0  0  0  0  0
    4.0936    5.4143    0.2059 H   0  0  0  0  0  0  0  0  0  0  0  0
    3.5037    3.5086   -2.2096 H   0  0  0  0  0  0  0  0  0  0  0  0
    5.0561    3.6677   -1.3781 H   0  0  0  0  0  0  0  0  0  0  0  0
    4.2912    2.0772   -1.5262 H   0  0  0  0  0  0  0  0  0  0  0  0
    1.8787   -3.2443    1.9393 H   0  0  0  0  0  0  0  0  0  0  0  0
    0.8151   -3.5231   -2.2159 H   0  0  0  0  0  0  0  0  0  0  0  0
    4.2652   -3.3312    1.2533 H   0  0  0  0  0  0  0  0  0  0  0  0
    4.7948   -3.5126   -1.1838 H   0  0  0  0  0  0  0  0  0  0  0  0
  1 18  2  0  0  0  0
  2 19  1  0  0  0  0
  2 54  1  0  0  0  0
  3 22  1  0  0  0  0
  3 55  1  0  0  0  0
  4 18  1  0  0  0  0
  4 24  1  0  0  0  0
  4 50  1  0  0  0  0
  5 29  1  0  0  0  0
  5 31  2  0  0  0  0
  6  7  1  0  0  0  0
  6  8  1  0  0  0  0
  6 11  1  0  0  0  0
  6 32  1  0  0  0  0
  7  9  1  0  0  0  0
  7 13  1  0  0  0  0
  7 18  1  0  0  0  0
  8 10  1  0  0  0  0
  8 15  1  0  0  0  0
  8 16  1  0  0  0  0
  9 12  1  0  0  0  0
  9 33  1  0  0  0  0
  9 34  1  0  0  0  0
 10 12  1  0  0  0  0
 10 35  1  0  0  0  0
 10 36  1  0  0  0  0
 11 14  1  0  0  0  0
 11 37  1  0  0  0  0
 11 38  1  0  0  0  0
 12 39  1  0  0  0  0
 12 40  1  0  0  0  0
 13 17  1  0  0  0  0
 13 19  2  0  0  0  0
 14 17  1  0  0  0  0
 14 41  1  0  0  0  0
 14 42  1  0  0  0  0
 15 43  1  0  0  0  0
 15 44  1  0  0  0  0
 15 45  1  0  0  0  0
 16 46  1  0  0  0  0
 16 47  1  0  0  0  0
 16 48  1  0  0  0  0
 17 20  2  0  0  0  0
 19 22  1  0  0  0  0
 20 21  1  0  0  0  0
 20 49  1  0  0  0  0
 21 22  2  0  0  0  0
 21 23  1  0  0  0  0
 23 25  1  0  0  0  0
 23 26  1  0  0  0  0
 23 51  1  0  0  0  0
 24 27  1  0  0  0  0
 24 52  1  0  0  0  0
 24 53  1  0  0  0  0
 25 56  1  0  0  0  0
 25 57  1  0  0  0  0
 25 58  1  0  0  0  0
 26 59  1  0  0  0  0
 26 60  1  0  0  0  0
 26 61  1  0  0  0  0
 27 28  1  0  0  0  0
 27 29  2  0  0  0  0
 28 30  2  0  0  0  0
 28 62  1  0  0  0  0
 29 63  1  0  0  0  0
 30 31  1  0  0  0  0
 30 64  1  0  0  0  0
 31 65  1  0  0  0  0
M  END
> <PUBCHEM_COMPOUND_CID>
155511438

> <PUBCHEM_CONFORMER_RMSD>
0.8

> <PUBCHEM_CONFORMER_DIVERSEORDER>
13
11
35
10
26
18
9
12
31
5
25
30
19
16
3
32
6
17
2
8
34
33
21
29
27
22
15
36
28
4
23
7
20
1
14
24

> <PUBCHEM_MMFF94_PARTIAL_CHARGES>
29
1 -0.57
13 -0.14
14 0.14
17 -0.14
18 0.57
19 0.08
2 -0.53
20 -0.15
21 -0.14
22 0.08
23 0.14
24 0.44
27 -0.14
28 -0.15
29 0.16
3 -0.53
30 -0.15
31 0.16
4 -0.73
49 0.15
5 -0.62
50 0.37
54 0.45
55 0.45
62 0.15
63 0.15
64 0.15
65 0.15
7 0.2

> <PUBCHEM_EFFECTIVE_ROTOR_COUNT>
6.2

> <PUBCHEM_PHARMACOPHORE_FEATURES>
11
1 1 acceptor
1 2 donor
1 3 donor
1 4 donor
1 5 acceptor
3 23 25 26 hydrophobe
3 8 15 16 hydrophobe
6 13 17 19 20 21 22 rings
6 5 27 28 29 30 31 rings
6 6 7 11 13 14 17 rings
6 6 7 8 9 10 12 rings

> <PUBCHEM_HEAVY_ATOM_COUNT>
31

> <PUBCHEM_ATOM_DEF_STEREO_COUNT>
2

> <PUBCHEM_ATOM_UDEF_STEREO_COUNT>
0

> <PUBCHEM_BOND_DEF_STEREO_COUNT>
0

> <PUBCHEM_BOND_UDEF_STEREO_COUNT>
0

> <PUBCHEM_ISOTOPIC_ATOM_COUNT>
0

> <PUBCHEM_COMPONENT_COUNT>
1

> <PUBCHEM_CACTVS_TAUTO_COUNT>
-1

> <PUBCHEM_CONFORMER_ID>
0944EA8E0000000D

> <PUBCHEM_MMFF94_ENERGY>
112.0155

> <PUBCHEM_FEATURE_SELFOVERLAP>
55.868

> <PUBCHEM_SHAPE_FINGERPRINT>
107951 10 18052270775547956414
11477941 20 17622757235942566654
11513181 2 18408595981387946005
11763715 3 16988559036167164091
12156800 1 15649052774473804538
12160290 23 17403155484523920602
12422481 6 18052782954688080666
12788726 201 17326055048855629658
13383661 66 17335621294092248463
133893 2 18271540714392400315
13402501 40 18266729187333000722
13681431 1 18198064685866841234
14020679 6 17758137912157611441
14363568 33 18337122189211223618
14747281 78 17316729150643583029
14856354 85 16446157000796049360
15064986 96 18261118508123640641
15324884 4 17835484203842027090
15439362 3 18410007728585317685
15463212 79 17688579885669142760
15927050 60 18268717288681125311
16752209 62 17692237960459205171
167882 2 18410573993957709191
17357779 13 17696734585022861051
1813 80 17985267365658902559
19930381 70 18337671914986707876
20028762 73 17691972978890628151
20101258 96 17980200777322665190
20764821 26 18265892639478053654
21133410 230 17321311052158193546
21344244 246 18341609356051659431
22182313 1 18047728443657681153
23419403 2 18266742372613093081
23559900 14 18336257930338441881
244849 19 18041294209819490739
3027735 51 17910107250460474047
3298306 158 18409455812423524428
3380486 145 17548147632207654507
35225 105 17482548994346230922
3729539 64 18194430882068727052
4017518 198 18199464558175608796
5080951 261 17253394283229484236
5081480 168 17982152432311708101
5265222 85 18118979215938072356
532947 4 18410016528529870814
57527306 92 15749321431609166077
59444896 2 17269513892006010872
6287921 2 18340757196143357035
6669772 16 18339088201790211484
90525 40 17974563907803939827

> <PUBCHEM_SHAPE_MULTIPOLES>
610.4
7.81
6.17
1.83
4.66
1.59
0.22
-1.84
-0.73
-10.72
-1.64
0.3
0.14
1.2

> <PUBCHEM_SHAPE_SELFOVERLAP>
1318.688

> <PUBCHEM_SHAPE_VOLUME>
330.3

> <PUBCHEM_COORDINATE_TYPE>
2
5
10

$$$$
