455260
  -OEChem-08012508313D

 52 54  0     1  0  0  0  0  0999 V2000
   -1.0541   -1.1078   -2.1679 O   0  0  0  0  0  0  0  0  0  0  0  0
   -1.9986   -2.5205   -0.6487 O   0  0  0  0  0  0  0  0  0  0  0  0
    0.7480   -2.4931    0.3628 O   0  0  0  0  0  0  0  0  0  0  0  0
    3.4208   -2.1338    0.3534 O   0  0  0  0  0  0  0  0  0  0  0  0
   -2.0063    0.9258   -0.3812 C   0  0  1  0  0  0  0  0  0  0  0  0
   -1.1822   -0.3419    0.0651 C   0  0  2  0  0  0  0  0  0  0  0  0
   -3.5570    0.8287   -0.0836 C   0  0  0  0  0  0  0  0  0  0  0  0
   -1.5737   -0.7953    1.4946 C   0  0  0  0  0  0  0  0  0  0  0  0
   -3.8079    0.3760    1.3697 C   0  0  0  0  0  0  0  0  0  0  0  0
   -1.3658    2.1893    0.2365 C   0  0  0  0  0  0  0  0  0  0  0  0
   -3.0749   -0.9068    1.7340 C   0  0  0  0  0  0  0  0  0  0  0  0
    0.3428   -0.1198    0.0503 C   0  0  0  0  0  0  0  0  0  0  0  0
    0.0573    2.3809   -0.2692 C   0  0  0  0  0  0  0  0  0  0  0  0
   -4.2704    2.1879   -0.2887 C   0  0  0  0  0  0  0  0  0  0  0  0
   -4.2514   -0.1479   -1.0651 C   0  0  0  0  0  0  0  0  0  0  0  0
    0.9074    1.1594   -0.0881 C   0  0  0  0  0  0  0  0  0  0  0  0
   -1.4690   -1.4544   -0.9249 C   0  0  0  0  0  0  0  0  0  0  0  0
    1.2173   -1.2171    0.2084 C   0  0  0  0  0  0  0  0  0  0  0  0
    2.3053    1.3127   -0.1048 C   0  0  0  0  0  0  0  0  0  0  0  0
    3.1478    0.2141    0.0429 C   0  0  0  0  0  0  0  0  0  0  0  0
    2.6029   -1.0524    0.2038 C   0  0  0  0  0  0  0  0  0  0  0  0
    4.6264    0.4187    0.0273 C   0  0  0  0  0  0  0  0  0  0  0  0
    5.1085    1.3101    1.1869 C   0  0  0  0  0  0  0  0  0  0  0  0
    5.1269    0.9876   -1.3133 C   0  0  0  0  0  0  0  0  0  0  0  0
   -1.9107    1.0565   -1.4694 H   0  0  0  0  0  0  0  0  0  0  0  0
   -1.1654   -0.0846    2.2267 H   0  0  0  0  0  0  0  0  0  0  0  0
   -1.1318   -1.7645    1.7535 H   0  0  0  0  0  0  0  0  0  0  0  0
   -4.8825    0.2321    1.5407 H   0  0  0  0  0  0  0  0  0  0  0  0
   -3.4940    1.1661    2.0643 H   0  0  0  0  0  0  0  0  0  0  0  0
   -1.3729    2.1296    1.3312 H   0  0  0  0  0  0  0  0  0  0  0  0
   -1.9159    3.0943   -0.0370 H   0  0  0  0  0  0  0  0  0  0  0  0
   -3.4981   -1.7590    1.1944 H   0  0  0  0  0  0  0  0  0  0  0  0
   -3.2459   -1.1196    2.7968 H   0  0  0  0  0  0  0  0  0  0  0  0
    0.5026    3.2298    0.2640 H   0  0  0  0  0  0  0  0  0  0  0  0
    0.0396    2.6356   -1.3363 H   0  0  0  0  0  0  0  0  0  0  0  0
   -3.9893    2.9210    0.4743 H   0  0  0  0  0  0  0  0  0  0  0  0
   -4.0419    2.6075   -1.2747 H   0  0  0  0  0  0  0  0  0  0  0  0
   -5.3596    2.0800   -0.2192 H   0  0  0  0  0  0  0  0  0  0  0  0
   -5.3427   -0.0813   -0.9749 H   0  0  0  0  0  0  0  0  0  0  0  0
   -3.9982    0.0933   -2.1036 H   0  0  0  0  0  0  0  0  0  0  0  0
   -4.0100   -1.1947   -0.8917 H   0  0  0  0  0  0  0  0  0  0  0  0
    2.7207    2.3101   -0.2332 H   0  0  0  0  0  0  0  0  0  0  0  0
   -1.2315   -1.8154   -2.8236 H   0  0  0  0  0  0  0  0  0  0  0  0
    5.1597   -0.5305    0.1404 H   0  0  0  0  0  0  0  0  0  0  0  0
    1.5037   -3.0989    0.4544 H   0  0  0  0  0  0  0  0  0  0  0  0
    4.1152   -1.9119    0.9959 H   0  0  0  0  0  0  0  0  0  0  0  0
    4.7229    2.3322    1.1080 H   0  0  0  0  0  0  0  0  0  0  0  0
    6.2024    1.3684    1.1974 H   0  0  0  0  0  0  0  0  0  0  0  0
    4.7850    0.9020    2.1509 H   0  0  0  0  0  0  0  0  0  0  0  0
    4.8134    0.3501   -2.1476 H   0  0  0  0  0  0  0  0  0  0  0  0
    6.2211    1.0406   -1.3239 H   0  0  0  0  0  0  0  0  0  0  0  0
    4.7447    1.9969   -1.5000 H   0  0  0  0  0  0  0  0  0  0  0  0
  1 17  1  0  0  0  0
  1 43  1  0  0  0  0
  2 17  2  0  0  0  0
  3 18  1  0  0  0  0
  3 45  1  0  0  0  0
  4 21  1  0  0  0  0
  4 46  1  0  0  0  0
  5  6  1  0  0  0  0
  5  7  1  0  0  0  0
  5 10  1  0  0  0  0
  5 25  1  0  0  0  0
  6  8  1  0  0  0  0
  6 12  1  0  0  0  0
  6 17  1  0  0  0  0
  7  9  1  0  0  0  0
  7 14  1  0  0  0  0
  7 15  1  0  0  0  0
  8 11  1  0  0  0  0
  8 26  1  0  0  0  0
  8 27  1  0  0  0  0
  9 11  1  0  0  0  0
  9 28  1  0  0  0  0
  9 29  1  0  0  0  0
 10 13  1  0  0  0  0
 10 30  1  0  0  0  0
 10 31  1  0  0  0  0
 11 32  1  0  0  0  0
 11 33  1  0  0  0  0
 12 16  1  0  0  0  0
 12 18  2  0  0  0  0
 13 16  1  0  0  0  0
 13 34  1  0  0  0  0
 13 35  1  0  0  0  0
 14 36  1  0  0  0  0
 14 37  1  0  0  0  0
 14 38  1  0  0  0  0
 15 39  1  0  0  0  0
 15 40  1  0  0  0  0
 15 41  1  0  0  0  0
 16 19  2  0  0  0  0
 18 21  1  0  0  0  0
 19 20  1  0  0  0  0
 19 42  1  0  0  0  0
 20 21  2  0  0  0  0
 20 22  1  0  0  0  0
 22 23  1  0  0  0  0
 22 24  1  0  0  0  0
 22 44  1  0  0  0  0
 23 47  1  0  0  0  0
 23 48  1  0  0  0  0
 23 49  1  0  0  0  0
 24 50  1  0  0  0  0
 24 51  1  0  0  0  0
 24 52  1  0  0  0  0
M  END
> <PUBCHEM_COMPOUND_CID>
455260

> <PUBCHEM_CONFORMER_RMSD>
0.6

> <PUBCHEM_CONFORMER_DIVERSEORDER>
1
11
12
6
16
5
8
9
17
2
13
10
3
14
7
15
4

> <PUBCHEM_MMFF94_PARTIAL_CHARGES>
18
1 -0.65
12 -0.14
13 0.14
16 -0.14
17 0.66
18 0.08
19 -0.15
2 -0.57
20 -0.14
21 0.08
22 0.14
3 -0.53
4 -0.53
42 0.15
43 0.5
45 0.45
46 0.45
6 0.2

> <PUBCHEM_EFFECTIVE_ROTOR_COUNT>
3.2

> <PUBCHEM_PHARMACOPHORE_FEATURES>
10
1 1 acceptor
1 2 acceptor
1 3 donor
1 4 donor
3 1 2 17 anion
3 22 23 24 hydrophobe
3 7 14 15 hydrophobe
6 12 16 18 19 20 21 rings
6 5 6 10 12 13 16 rings
6 5 6 7 8 9 11 rings

> <PUBCHEM_HEAVY_ATOM_COUNT>
24

> <PUBCHEM_ATOM_DEF_STEREO_COUNT>
1

> <PUBCHEM_ATOM_UDEF_STEREO_COUNT>
1

> <PUBCHEM_BOND_DEF_STEREO_COUNT>
0

> <PUBCHEM_BOND_UDEF_STEREO_COUNT>
0

> <PUBCHEM_ISOTOPIC_ATOM_COUNT>
0

> <PUBCHEM_COMPONENT_COUNT>
1

> <PUBCHEM_CACTVS_TAUTO_COUNT>
53

> <PUBCHEM_CONFORMER_ID>
0006F25C00000001

> <PUBCHEM_MMFF94_ENERGY>
83.6079

> <PUBCHEM_FEATURE_SELFOVERLAP>
50.863

> <PUBCHEM_SHAPE_FINGERPRINT>
10863032 1 18259990344710828387
10906281 52 18195543506216664201
10948715 1 18192147093164761465
10967382 1 18410009910233180848
11132069 177 18343017830936995720
11578080 2 16445025293818304159
12011746 2 18411139117217674189
12236239 1 17846499240320478331
12403814 3 18410288095085731273
12507560 40 18187937140192825971
12553582 1 18337394945599735804
12633257 1 17898318175523946865
12788726 201 17702670925769151169
12969540 114 18339908330296481141
13140716 1 18195251237222007713
13214271 11 18260831518150257121
13224815 77 18411976975358705112
13583140 156 18335988652905289331
13675066 3 18335142003219144512
14787075 74 17968953018194215435
14790565 3 18339930298674826712
15196674 1 18337389340261128697
15309172 13 18200880574016480939
15375358 24 18259985963691374592
1601671 61 18259992574115827292
16945 1 18409454700037732201
17349148 13 17967244313465006888
17492 54 18268690793554845085
17980427 23 17603879913940859261
1813 80 15285653087566845831
18186145 218 17917717937436312824
19784866 170 18261401030924677896
200 152 18271802419856232209
20261772 1 18340775913621311232
21033648 29 18130780157551922449
21267235 1 18339648931250997055
22182313 1 18267043698912945127
23184049 59 18342466906696681561
23227448 37 18270397308056531684
2334 1 17978511163021805313
23402539 116 18273206487219640781
23558518 356 17545604452938402273
23559900 14 18041847190853338682
2748010 2 17978509732723557140
296302 2 18412546483410799577
335352 9 18193274079112650998
34934 24 18410005529255892688
350125 39 18267027348130574915
4340502 62 17313387773514315129
474 4 18040435499406093132
5104073 3 18335422305295302769
90525 40 18131069346400360759
9709674 26 18263648376767476434

> <PUBCHEM_SHAPE_MULTIPOLES>
470.43
9.15
2.44
1.32
6.94
0.22
0.03
-3.04
-0.35
-0.42
0.14
-0.61
0.31
-0.02

> <PUBCHEM_SHAPE_SELFOVERLAP>
1011.689

> <PUBCHEM_SHAPE_VOLUME>
257.7

> <PUBCHEM_COORDINATE_TYPE>
2
5
10

$$$$
