23435869
  -OEChem-07252503413D

 20 21  0     0  0  0  0  0  0999 V2000
   -3.2930    1.4974   -0.0107 O   0  0  0  0  0  0  0  0  0  0  0  0
    0.2172   -1.7248   -0.0020 N   0  0  0  0  0  0  0  0  0  0  0  0
    2.4579   -1.1661   -0.0029 N   0  0  0  0  0  0  0  0  0  0  0  0
   -3.8356   -0.7306    0.0032 N   0  0  0  0  0  0  0  0  0  0  0  0
    0.8333    0.5770    0.0015 C   0  0  0  0  0  0  0  0  0  0  0  0
   -0.5199    0.9443    0.0035 C   0  0  0  0  0  0  0  0  0  0  0  0
    1.1734   -0.7869   -0.0013 C   0  0  0  0  0  0  0  0  0  0  0  0
   -1.5017   -0.0316    0.0028 C   0  0  0  0  0  0  0  0  0  0  0  0
    1.8557    1.5366    0.0025 C   0  0  0  0  0  0  0  0  0  0  0  0
   -1.0819   -1.3437    0.0000 C   0  0  0  0  0  0  0  0  0  0  0  0
    3.1805    1.1359    0.0010 C   0  0  0  0  0  0  0  0  0  0  0  0
   -2.9120    0.3124    0.0040 C   0  0  0  0  0  0  0  0  0  0  0  0
    3.4261   -0.2197   -0.0016 C   0  0  0  0  0  0  0  0  0  0  0  0
   -0.7900    1.9984    0.0057 H   0  0  0  0  0  0  0  0  0  0  0  0
    1.6222    2.5986    0.0047 H   0  0  0  0  0  0  0  0  0  0  0  0
   -1.7513   -2.1949   -0.0015 H   0  0  0  0  0  0  0  0  0  0  0  0
    3.9884    1.8575    0.0018 H   0  0  0  0  0  0  0  0  0  0  0  0
    4.4416   -0.6019   -0.0030 H   0  0  0  0  0  0  0  0  0  0  0  0
   -3.6073   -1.7167    0.0100 H   0  0  0  0  0  0  0  0  0  0  0  0
   -4.8284   -0.5190   -0.0028 H   0  0  0  0  0  0  0  0  0  0  0  0
  1 12  2  0  0  0  0
  2  7  2  0  0  0  0
  2 10  1  0  0  0  0
  3  7  1  0  0  0  0
  3 13  2  0  0  0  0
  4 12  1  0  0  0  0
  4 19  1  0  0  0  0
  4 20  1  0  0  0  0
  5  6  2  0  0  0  0
  5  7  1  0  0  0  0
  5  9  1  0  0  0  0
  6  8  1  0  0  0  0
  6 14  1  0  0  0  0
  8 10  2  0  0  0  0
  8 12  1  0  0  0  0
  9 11  2  0  0  0  0
  9 15  1  0  0  0  0
 10 16  1  0  0  0  0
 11 13  1  0  0  0  0
 11 17  1  0  0  0  0
 13 18  1  0  0  0  0
M  END
> <PUBCHEM_COMPOUND_CID>
23435869

> <PUBCHEM_CONFORMER_RMSD>
0.4

> <PUBCHEM_CONFORMER_DIVERSEORDER>
1
2

> <PUBCHEM_MMFF94_PARTIAL_CHARGES>
19
1 -0.57
10 0.16
11 -0.15
12 0.54
13 0.16
14 0.15
15 0.15
16 0.15
17 0.15
18 0.15
19 0.37
2 -0.62
20 0.37
3 -0.62
4 -0.8
6 -0.15
7 0.62
8 0.09
9 -0.15

> <PUBCHEM_EFFECTIVE_ROTOR_COUNT>
1

> <PUBCHEM_PHARMACOPHORE_FEATURES>
6
1 1 acceptor
1 3 acceptor
1 4 donor
3 2 3 7 cation
6 2 5 6 7 8 10 rings
6 3 5 7 9 11 13 rings

> <PUBCHEM_HEAVY_ATOM_COUNT>
13

> <PUBCHEM_ATOM_DEF_STEREO_COUNT>
0

> <PUBCHEM_ATOM_UDEF_STEREO_COUNT>
0

> <PUBCHEM_BOND_DEF_STEREO_COUNT>
0

> <PUBCHEM_BOND_UDEF_STEREO_COUNT>
0

> <PUBCHEM_ISOTOPIC_ATOM_COUNT>
0

> <PUBCHEM_COMPONENT_COUNT>
1

> <PUBCHEM_CACTVS_TAUTO_COUNT>
2

> <PUBCHEM_CONFORMER_ID>
01659A5D00000001

> <PUBCHEM_MMFF94_ENERGY>
42.7044

> <PUBCHEM_FEATURE_SELFOVERLAP>
30.482

> <PUBCHEM_SHAPE_FINGERPRINT>
10219947 1 18260268555206620716
10608611 8 18410008853450017737
10967382 1 18410574006657942626
10980938 120 18410293601328620282
11471102 20 18410569561345776901
12032990 46 18410581681775264451
12932764 1 17346308332480974473
13380535 76 18410572924447912594
14144814 61 18410855460170528865
14325111 11 18410573993852363393
14897335 6 18340763849031815788
15442244 35 18195528082270926138
15536298 74 18343864416151080094
15775835 57 18411141354694960788
16945 1 18410856547002943938
17844478 74 18040438784850469677
18186145 218 18342745078543036549
193761 8 17690280838314456781
200 152 18201709679135761533
20645477 70 18340199696730606327
21501502 16 18338513174420629286
23402539 116 18201710760634304148
23402655 69 18341887481438766509
23463225 33 18335700524902833048
23559900 14 18200319935526144004
2748010 2 18338803445469211166
5104073 3 18410855455843809961
528886 8 18411132558807498098
53812653 166 18271239538485202840
63268167 104 18341616996745179096
69090 78 18272647995579260263
7364860 26 18269556031406304638

> <PUBCHEM_SHAPE_MULTIPOLES>
246.72
5.84
1.65
0.59
1.88
0.07
0
-0.93
0
-0.13
0
-0.04
-0.01
0.01

> <PUBCHEM_SHAPE_SELFOVERLAP>
544.237

> <PUBCHEM_SHAPE_VOLUME>
132.5

> <PUBCHEM_COORDINATE_TYPE>
2
5
10

$$$$
